
 ===================================================
  XFOIL Version 6.97
  Copyright (C) 2000   Mark Drela, Harold Youngren

  This software comes with ABSOLUTELY NO WARRANTY,
    subject to the GNU General Public License.

  Caveat computor
 ===================================================

 File  xfoil.def  not found

   QUIT    Exit program

  .OPER    Direct operating point(s)
  .MDES    Complex mapping design routine
  .QDES    Surface speed design routine
  .GDES    Geometry design routine

   SAVE f  Write airfoil to labeled coordinate file
   PSAV f  Write airfoil to plain coordinate file
   ISAV f  Write airfoil to ISES coordinate file
   MSAV f  Write airfoil to MSES coordinate file
   REVE    Reverse written-airfoil node ordering
   DELI i  Change written-airfoil file delimiters

   LOAD f  Read buffer airfoil from coordinate file
   NACA i  Set NACA 4,5-digit airfoil and buffer airfoil
   INTE    Set buffer airfoil by interpolating two airfoils
   NORM    Buffer airfoil normalization toggle
   HALF    Halve the number of points in buffer airfoil
   XYCM rr Change CM reference location, currently  0.25000 0.00000

   BEND    Display structural properties of current airfoil

   PCOP    Set current-airfoil panel nodes directly from buffer airfoil points
   PANE    Set current-airfoil panel nodes ( 160 ) based on curvature
  .PPAR    Show/change paneling

  .PLOP    Plotting options

   WDEF f  Write  current-settings file
   RDEF f  Reread current-settings file
   NAME s  Specify new airfoil name
   NINC    Increment name version number

   Z       Zoom    | (available in all menus)
   U       Unzoom  | 

 XFOIL   c>   ...............................................

  G raphics-enable flag:        T
  S ize of plot object          10.00"
  A spect ratio of plot object   0.5500
  P age dimensions              11.00 x  8.50"
  M argins from page edges       0.00",  0.00"
  F ont size (relative)          0.0150
  W indow/screen size fraction   0.8000
  B lowup input method:        Cursor    
  O rientation of plot:        Landscape 
  C olor PostScript output?     F

      Option, Value   (or <Return>)    c>   ...............................................

  G raphics-enable flag:        F
  S ize of plot object          10.00"
  A spect ratio of plot object   0.5500
  P age dimensions              11.00 x  8.50"
  M argins from page edges       0.00",  0.00"
  F ont size (relative)          0.0150
  W indow/screen size fraction   0.8000
  B lowup input method:        Cursor    
  O rientation of plot:        Landscape 
  C olor PostScript output?     F

      Option, Value   (or <Return>)    c>  
 XFOIL   c>  
 Labeled airfoil file.  Name:  E387                                            

 Number of input coordinate points:  61
 Counterclockwise ordering
 Max thickness =     0.090706  at x =   0.311
 Max camber    =     0.037836  at x =   0.401

  LE  x,y  =   0.00019   0.00026  |   Chord =   0.99981
  TE  x,y  =   1.00000   0.00000  |

 Current airfoil nodes set from buffer airfoil nodes (  61 )

 WARNING: Poor input coordinate distribution
          Excessive panel angle   52.5  at i =  33
          Repaneling with PANE and/or PPAR suggested
           (doing GDES,CADD before repaneling _may_
            improve excessively coarse LE spacing

 XFOIL   c>  
 Sharp trailing edge

 Paneling parameters used...
   Number of panel nodes       160
   Panel bunching parameter    1.000
   TE/LE panel density ratio   0.150
   Refined-area/LE panel density ratio    0.200
   Top    side refined area x/c limits  1.000 1.000
   Bottom side refined area x/c limits  1.000 1.000

 XFOIL   c>  
.OPERi   c>  
 M  =    0.0000
 Re =  0.1000E+07

.OPERv   c>   Calculating unit vorticity distributions ...
 Calculating wake trajectory ...
 Calculating source influence matrix ...

 Solving BL system ...

 Initializing BL ...
    side            1  ...
 MRCHUE: Inverse mode at  46     Hk =   4.525
 MRCHUE: Inverse mode at  47     Hk =   5.483
 MRCHUE: Inverse mode at  48     Hk =   6.426
 MRCHUE: Inverse mode at  49     Hk =   7.360
 MRCHUE: Inverse mode at  50     Hk =   7.582
 MRCHUE: Inverse mode at  51     Hk =   3.353
    side            2  ...
 MRCHUE: Inverse mode at  77     Hk =   3.800
 MRCHUE: Inverse mode at  78     Hk =   4.072

 Side 1  free  transition at x/c =  0.5168   50
 Side 2 forced transition at x/c =  1.0000   78

   1   rms: 0.1012E+00   max: -.1118E+01   C at   78  2   RLX: 0.447
       a =  2.000      CL =  0.6277
      Cm = -0.0813     CD =  0.00627   =>   CDf =  0.00459    CDp =  0.00167

 MRCHDU: Convergence failed at  51  side 1    Res =  0.1781E+02
 Side 1  free  transition at x/c =  0.5274   51
 Side 2 forced transition at x/c =  1.0000   78

   2   rms: 0.4421E-01   max: -.4705E+00   C at   78  2
       a =  2.000      CL =  0.6177
      Cm = -0.0794     CD =  0.00548   =>   CDf =  0.00425    CDp =  0.00123

 Side 1  free  transition at x/c =  0.5653   54
 Side 2 forced transition at x/c =  1.0000   78

   3   rms: 0.2260E-01   max: 0.2818E+00   C at   54  1
       a =  2.000      CL =  0.6189
      Cm = -0.0797     CD =  0.00546   =>   CDf =  0.00413    CDp =  0.00133

 Side 1  free  transition at x/c =  0.5572   53
 Side 2 forced transition at x/c =  1.0000   78

   4   rms: 0.6108E-02   max: -.6822E-01   D at   53  1
       a =  2.000      CL =  0.6194
      Cm = -0.0798     CD =  0.00541   =>   CDf =  0.00417    CDp =  0.00124

 Side 1  free  transition at x/c =  0.5564   53
 Side 2 forced transition at x/c =  1.0000   78

   5   rms: 0.1147E-03   max: 0.1789E-02   C at   53  1
       a =  2.000      CL =  0.6194
      Cm = -0.0798     CD =  0.00542   =>   CDf =  0.00416    CDp =  0.00125

 Side 1  free  transition at x/c =  0.5564   53
 Side 2 forced transition at x/c =  1.0000   78

   6   rms: 0.7148E-06   max: -.6711E-05   D at   53  1
       a =  2.000      CL =  0.6194
      Cm = -0.0798     CD =  0.00542   =>   CDf =  0.00416    CDp =  0.00125

.OPERv   c>  
 Solving BL system ...

 Side 1  free  transition at x/c =  0.5564   53
 Side 2 forced transition at x/c =  1.0000   78

   1   rms: 0.4984E-06   max: 0.4796E-05   D at   53  1
       a =  2.000      CL =  0.6194
      Cm = -0.0798     CD =  0.00542   =>   CDf =  0.00416    CDp =  0.00125

.OPERv   c>  
 Polar  1 newly created for accumulation
 Airfoil archived with polar: E387                                            

Enter  polar save filename  OR  <return> for no file   s>  
 New polar save file available

Enter  polar dump filename  OR  <return> for no file   s>  
 Polar dump file will NOT be written

 Polar accumulation enabled

.OPERva   c>  
 Solving BL system ...

 Side 1  free  transition at x/c =  0.5564   53
 Side 2 forced transition at x/c =  1.0000   78

   1   rms: 0.3809E-06   max: 0.3324E-05   C at   53  1
       a =  2.000      CL =  0.6194
      Cm = -0.0798     CD =  0.00542   =>   CDf =  0.00416    CDp =  0.00125

 Point added to stored polar  1
 Point written to save file  polar_tmp.dat                                   
 Dump file unspecified or not available
 Calculating wake trajectory ...
 Calculating source influence matrix ...

 Solving BL system ...

 Side 1  free  transition at x/c =  0.5564   53
 Side 2 forced transition at x/c =  1.0000   78

   1   rms: 0.1765E-01   max: -.1996E-01   C at   78  2
       a =  2.100      CL =  0.6306
      Cm = -0.0798     CD =  0.00544   =>   CDf =  0.00416    CDp =  0.00127

 Side 1  free  transition at x/c =  0.5532   53
 Side 2 forced transition at x/c =  1.0000   78

   2   rms: 0.8856E-03   max: -.1296E-01   C at   53  1
       a =  2.100      CL =  0.6305
      Cm = -0.0798     CD =  0.00544   =>   CDf =  0.00418    CDp =  0.00126

 Side 1  free  transition at x/c =  0.5535   53
 Side 2 forced transition at x/c =  1.0000   78

   3   rms: 0.5914E-05   max: -.1101E-03   D at   54  1
       a =  2.100      CL =  0.6305
      Cm = -0.0798     CD =  0.00544   =>   CDf =  0.00418    CDp =  0.00126

 Point added to stored polar  1
 Point written to save file  polar_tmp.dat                                   
 Dump file unspecified or not available
 Calculating wake trajectory ...
 Calculating source influence matrix ...

 Solving BL system ...

 Side 1  free  transition at x/c =  0.5535   53
 Side 2 forced transition at x/c =  1.0000   78

   1   rms: 0.1787E-01   max: -.2034E-01   C at   78  2
       a =  2.200      CL =  0.6417
      Cm = -0.0798     CD =  0.00547   =>   CDf =  0.00418    CDp =  0.00129

 Side 1  free  transition at x/c =  0.5503   53
 Side 2 forced transition at x/c =  1.0000   78

   2   rms: 0.7903E-03   max: -.1009E-01   C at   53  1
       a =  2.200      CL =  0.6416
      Cm = -0.0797     CD =  0.00547   =>   CDf =  0.00420    CDp =  0.00128

 Side 1  free  transition at x/c =  0.5506   53
 Side 2 forced transition at x/c =  1.0000   78

   3   rms: 0.4234E-05   max: -.7465E-04   D at   54  1
       a =  2.200      CL =  0.6416
      Cm = -0.0797     CD =  0.00547   =>   CDf =  0.00419    CDp =  0.00128

 Point added to stored polar  1
 Point written to save file  polar_tmp.dat                                   
 Dump file unspecified or not available
 Calculating wake trajectory ...
 Calculating source influence matrix ...

 Solving BL system ...

 Side 1  free  transition at x/c =  0.5506   53
 Side 2 forced transition at x/c =  1.0000   78

   1   rms: 0.1810E-01   max: -.2029E-01   C at   78  2
       a =  2.300      CL =  0.6526
      Cm = -0.0797     CD =  0.00551   =>   CDf =  0.00419    CDp =  0.00132

 Side 1  free  transition at x/c =  0.5477   53
 Side 2 forced transition at x/c =  1.0000   78

   2   rms: 0.1345E-03   max: -.1080E-02   C at   53  1
       a =  2.300      CL =  0.6526
      Cm = -0.0797     CD =  0.00552   =>   CDf =  0.00422    CDp =  0.00130

 Side 1  free  transition at x/c =  0.5478   53
 Side 2 forced transition at x/c =  1.0000   78

   3   rms: 0.8578E-06   max: 0.6441E-05   D at   54  1
       a =  2.300      CL =  0.6526
      Cm = -0.0797     CD =  0.00552   =>   CDf =  0.00422    CDp =  0.00130

 Point added to stored polar  1
 Point written to save file  polar_tmp.dat                                   
 Dump file unspecified or not available
 Calculating wake trajectory ...
 Calculating source influence matrix ...

 Solving BL system ...

 Side 1  free  transition at x/c =  0.5478   53
 Side 2 forced transition at x/c =  1.0000   78

   1   rms: 0.1839E-01   max: -.2078E-01   C at   78  2
       a =  2.400      CL =  0.6635
      Cm = -0.0797     CD =  0.00557   =>   CDf =  0.00422    CDp =  0.00135

 Side 1  free  transition at x/c =  0.5452   52
 Side 2 forced transition at x/c =  1.0000   78

   2   rms: 0.2213E-02   max: -.3198E-01   C at   52  1
       a =  2.400      CL =  0.6638
      Cm = -0.0797     CD =  0.00554   =>   CDf =  0.00423    CDp =  0.00131

 Side 1  free  transition at x/c =  0.5451   52
 Side 2 forced transition at x/c =  1.0000   78

   3   rms: 0.2091E-04   max: 0.3564E-03   C at   52  1
       a =  2.400      CL =  0.6638
      Cm = -0.0797     CD =  0.00554   =>   CDf =  0.00422    CDp =  0.00132

 Point added to stored polar  1
 Point written to save file  polar_tmp.dat                                   
 Dump file unspecified or not available
 Calculating wake trajectory ...
 Calculating source influence matrix ...

 Solving BL system ...

 Side 1  free  transition at x/c =  0.5450   52
 Side 2 forced transition at x/c =  1.0000   78

   1   rms: 0.1750E-01   max: -.1835E-01   C at   78  2
       a =  2.500      CL =  0.6750
      Cm = -0.0797     CD =  0.00555   =>   CDf =  0.00422    CDp =  0.00133

 Side 1  free  transition at x/c =  0.5420   52
 Side 2 forced transition at x/c =  1.0000   78

   2   rms: 0.6100E-03   max: -.9808E-02   C at   52  1
       a =  2.500      CL =  0.6750
      Cm = -0.0797     CD =  0.00556   =>   CDf =  0.00422    CDp =  0.00133

 Side 1  free  transition at x/c =  0.5422   52
 Side 2 forced transition at x/c =  1.0000   78

   3   rms: 0.4132E-05   max: -.5467E-04   D at   53  1
       a =  2.500      CL =  0.6750
      Cm = -0.0797     CD =  0.00556   =>   CDf =  0.00422    CDp =  0.00134

 Point added to stored polar  1
 Point written to save file  polar_tmp.dat                                   
 Dump file unspecified or not available
 Calculating wake trajectory ...
 Calculating source influence matrix ...

 Solving BL system ...

 Side 1  free  transition at x/c =  0.5422   52
 Side 2 forced transition at x/c =  1.0000   78

   1   rms: 0.1760E-01   max: -.1888E-01   C at   78  2
       a =  2.600      CL =  0.6862
      Cm = -0.0797     CD =  0.00558   =>   CDf =  0.00419    CDp =  0.00139

 Side 1  free  transition at x/c =  0.5390   53
 Side 2 forced transition at x/c =  1.0000   77

   2   rms: 0.6874E-03   max: -.9240E-02   C at   53  1
       a =  2.600      CL =  0.6861
      Cm = -0.0797     CD =  0.00559   =>   CDf =  0.00423    CDp =  0.00136

 Side 1  free  transition at x/c =  0.5392   53
 Side 2 forced transition at x/c =  1.0000   77

   3   rms: 0.1105E-03   max: -.1072E-02   D at    4  1
       a =  2.600      CL =  0.6861
      Cm = -0.0797     CD =  0.00559   =>   CDf =  0.00422    CDp =  0.00136

 Side 1  free  transition at x/c =  0.5392   53
 Side 2 forced transition at x/c =  1.0000   77

   4   rms: 0.9271E-06   max: -.8045E-05   D at    6  1
       a =  2.600      CL =  0.6861
      Cm = -0.0797     CD =  0.00559   =>   CDf =  0.00422    CDp =  0.00136

 Point added to stored polar  1
 Point written to save file  polar_tmp.dat                                   
 Dump file unspecified or not available
 Calculating wake trajectory ...
 Calculating source influence matrix ...

 Solving BL system ...

 Side 1  free  transition at x/c =  0.5392   53
 Side 2 forced transition at x/c =  1.0000   77

   1   rms: 0.1774E-01   max: -.1867E-01   C at   77  2
       a =  2.700      CL =  0.6972
      Cm = -0.0797     CD =  0.00562   =>   CDf =  0.00422    CDp =  0.00139

 Side 1  free  transition at x/c =  0.5361   53
 Side 2 forced transition at x/c =  1.0000   77

   2   rms: 0.6250E-03   max: -.8388E-02   C at   53  1
       a =  2.700      CL =  0.6972
      Cm = -0.0797     CD =  0.00562   =>   CDf =  0.00424    CDp =  0.00138

 Side 1  free  transition at x/c =  0.5363   53
 Side 2 forced transition at x/c =  1.0000   77

   3   rms: 0.2824E-05   max: -.4642E-04   D at   54  1
       a =  2.700      CL =  0.6972
      Cm = -0.0797     CD =  0.00562   =>   CDf =  0.00424    CDp =  0.00138

 Point added to stored polar  1
 Point written to save file  polar_tmp.dat                                   
 Dump file unspecified or not available
 Calculating wake trajectory ...
 Calculating source influence matrix ...

 Solving BL system ...

 Side 1  free  transition at x/c =  0.5363   53
 Side 2 forced transition at x/c =  1.0000   77

   1   rms: 0.1804E-01   max: -.1997E-01   n at   76  2
       a =  2.800      CL =  0.7082
      Cm = -0.0797     CD =  0.00566   =>   CDf =  0.00424    CDp =  0.00142

 Side 1  free  transition at x/c =  0.5334   53
 Side 2 forced transition at x/c =  1.0000   77

   2   rms: 0.2031E-03   max: -.1848E-02   C at   53  1
       a =  2.800      CL =  0.7082
      Cm = -0.0797     CD =  0.00567   =>   CDf =  0.00426    CDp =  0.00140

 Side 1  free  transition at x/c =  0.5335   53
 Side 2 forced transition at x/c =  1.0000   77

   3   rms: 0.1054E-05   max: -.4120E-05   D at    7  1
       a =  2.800      CL =  0.7082
      Cm = -0.0797     CD =  0.00567   =>   CDf =  0.00426    CDp =  0.00141

 Point added to stored polar  1
 Point written to save file  polar_tmp.dat                                   
 Dump file unspecified or not available
 Calculating wake trajectory ...
 Calculating source influence matrix ...

 Solving BL system ...

 Side 1  free  transition at x/c =  0.5335   53
 Side 2 forced transition at x/c =  1.0000   77

   1   rms: 0.1828E-01   max: -.2128E-01   n at   76  2
       a =  2.900      CL =  0.7191
      Cm = -0.0797     CD =  0.00572   =>   CDf =  0.00426    CDp =  0.00146

 Side 1  free  transition at x/c =  0.5308   52
 Side 2 forced transition at x/c =  1.0000   77

   2   rms: 0.2045E-02   max: -.3051E-01   C at   52  1
       a =  2.900      CL =  0.7193
      Cm = -0.0797     CD =  0.00569   =>   CDf =  0.00427    CDp =  0.00143

 Side 1  free  transition at x/c =  0.5307   52
 Side 2 forced transition at x/c =  1.0000   77

   3   rms: 0.2046E-04   max: 0.3757E-03   C at   52  1
       a =  2.900      CL =  0.7193
      Cm = -0.0797     CD =  0.00569   =>   CDf =  0.00426    CDp =  0.00143

 Point added to stored polar  1
 Point written to save file  polar_tmp.dat                                   
 Dump file unspecified or not available
 Calculating wake trajectory ...
 Calculating source influence matrix ...

 Solving BL system ...

 Side 1  free  transition at x/c =  0.5307   52
 Side 2 forced transition at x/c =  1.0000   77

   1   rms: 0.1752E-01   max: -.1974E-01   n at   76  2
       a =  3.000      CL =  0.7306
      Cm = -0.0797     CD =  0.00571   =>   CDf =  0.00426    CDp =  0.00145

 Side 1  free  transition at x/c =  0.5274   52
 Side 2 forced transition at x/c =  1.0000   77

   2   rms: 0.6300E-03   max: -.1020E-01   C at   52  1
       a =  3.000      CL =  0.7305
      Cm = -0.0797     CD =  0.00571   =>   CDf =  0.00426    CDp =  0.00145

 Side 1  free  transition at x/c =  0.5276   52
 Side 2 forced transition at x/c =  1.0000   77

   3   rms: 0.3426E-05   max: -.5987E-04   D at   53  1
       a =  3.000      CL =  0.7305
      Cm = -0.0797     CD =  0.00571   =>   CDf =  0.00426    CDp =  0.00145

 Point added to stored polar  1
 Point written to save file  polar_tmp.dat                                   
 Dump file unspecified or not available
 Calculating wake trajectory ...
 Calculating source influence matrix ...

 Solving BL system ...

 Side 1  free  transition at x/c =  0.5276   52
 Side 2 forced transition at x/c =  1.0000   77

   1   rms: 0.1765E-01   max: -.1838E-01   n at   75  2
       a =  3.100      CL =  0.7417
      Cm = -0.0797     CD =  0.00574   =>   CDf =  0.00426    CDp =  0.00148

 Side 1  free  transition at x/c =  0.5242   52
 Side 2 forced transition at x/c =  1.0000   77

   2   rms: 0.8668E-03   max: -.1353E-01   C at   52  1
       a =  3.100      CL =  0.7416
      Cm = -0.0797     CD =  0.00574   =>   CDf =  0.00427    CDp =  0.00148

 Side 1  free  transition at x/c =  0.5244   52
 Side 2 forced transition at x/c =  1.0000   77

   3   rms: 0.5863E-05   max: -.8976E-04   D at   53  1
       a =  3.100      CL =  0.7416
      Cm = -0.0797     CD =  0.00574   =>   CDf =  0.00427    CDp =  0.00148

 Point added to stored polar  1
 Point written to save file  polar_tmp.dat                                   
 Dump file unspecified or not available
 Calculating wake trajectory ...
 Calculating source influence matrix ...

 Solving BL system ...

 Side 1  free  transition at x/c =  0.5244   52
 Side 2 forced transition at x/c =  1.0000   77

   1   rms: 0.1789E-01   max: -.1827E-01   n at   72  2
       a =  3.200      CL =  0.7527
      Cm = -0.0797     CD =  0.00578   =>   CDf =  0.00427    CDp =  0.00151

 Side 1  free  transition at x/c =  0.5210   52
 Side 2 forced transition at x/c =  1.0000   77

   2   rms: 0.7658E-03   max: -.1011E-01   C at   52  1
       a =  3.200      CL =  0.7527
      Cm = -0.0797     CD =  0.00578   =>   CDf =  0.00428    CDp =  0.00150

 Side 1  free  transition at x/c =  0.5212   52
 Side 2 forced transition at x/c =  1.0000   77

   3   rms: 0.4092E-05   max: -.5884E-04   D at   53  1
       a =  3.200      CL =  0.7527
      Cm = -0.0797     CD =  0.00579   =>   CDf =  0.00428    CDp =  0.00151

 Point added to stored polar  1
 Point written to save file  polar_tmp.dat                                   
 Dump file unspecified or not available
 Calculating wake trajectory ...
 Calculating source influence matrix ...

 Solving BL system ...

 Side 1  free  transition at x/c =  0.5212   52
 Side 2 forced transition at x/c =  1.0000   77

   1   rms: 0.1836E-01   max: -.1856E-01   C at   77  2
       a =  3.300      CL =  0.7636
      Cm = -0.0797     CD =  0.00583   =>   CDf =  0.00428    CDp =  0.00155

 Side 1  free  transition at x/c =  0.5181   51
 Side 2 forced transition at x/c =  1.0000   77

   2   rms: 0.1559E-03   max: -.1865E-02   C at   51  1
       a =  3.300      CL =  0.7636
      Cm = -0.0797     CD =  0.00584   =>   CDf =  0.00430    CDp =  0.00154

 Side 1  free  transition at x/c =  0.5180   51
 Side 2 forced transition at x/c =  1.0000   77

   3   rms: 0.1090E-05   max: 0.9654E-05   D at    5  2
       a =  3.300      CL =  0.7636
      Cm = -0.0797     CD =  0.00584   =>   CDf =  0.00430    CDp =  0.00154

 Point added to stored polar  1
 Point written to save file  polar_tmp.dat                                   
 Dump file unspecified or not available
 Calculating wake trajectory ...
 Calculating source influence matrix ...

 Solving BL system ...

 Side 1  free  transition at x/c =  0.5180   51
 Side 2 forced transition at x/c =  1.0000   77

   1   rms: 0.1759E-01   max: -.1921E-01   n at   71  2
       a =  3.400      CL =  0.7749
      Cm = -0.0797     CD =  0.00585   =>   CDf =  0.00424    CDp =  0.00161

 Side 1  free  transition at x/c =  0.5147   52
 Side 2 forced transition at x/c =  1.0000   76

   2   rms: 0.2257E-01   max: 0.4042E+00   D at    2  1
       a =  3.400      CL =  0.7748
      Cm = -0.0797     CD =  0.00586   =>   CDf =  0.00429    CDp =  0.00157

 Side 1  free  transition at x/c =  0.5149   52
 Side 2 forced transition at x/c =  1.0000   76

   3   rms: 0.2453E-02   max: 0.4421E-01   D at    2  1
       a =  3.400      CL =  0.7748
      Cm = -0.0797     CD =  0.00586   =>   CDf =  0.00435    CDp =  0.00151

 Side 1  free  transition at x/c =  0.5149   51
 Side 2 forced transition at x/c =  1.0000   77

   4   rms: 0.1725E-01   max: -.3087E+00   T at    2  2
       a =  3.400      CL =  0.7748
      Cm = -0.0797     CD =  0.00586   =>   CDf =  0.00429    CDp =  0.00156

 Side 1  free  transition at x/c =  0.5149   51
 Side 2 forced transition at x/c =  1.0000   77

   5   rms: 0.2795E-02   max: -.4815E-01   T at    2  2
       a =  3.400      CL =  0.7748
      Cm = -0.0797     CD =  0.00586   =>   CDf =  0.00429    CDp =  0.00156

 Side 1  free  transition at x/c =  0.5149   51
 Side 2 forced transition at x/c =  1.0000   77

   6   rms: 0.3116E-04   max: 0.3521E-03   D at    4  2
       a =  3.400      CL =  0.7748
      Cm = -0.0797     CD =  0.00586   =>   CDf =  0.00429    CDp =  0.00156

 Point added to stored polar  1
 Point written to save file  polar_tmp.dat                                   
 Dump file unspecified or not available
 Calculating wake trajectory ...
 Calculating source influence matrix ...

 Solving BL system ...

 Side 1  free  transition at x/c =  0.5149   51
 Side 2 forced transition at x/c =  1.0000   77

   1   rms: 0.2428E+00   max: 0.4138E+01   T at    2  2   RLX: 0.244
       a =  3.500      CL =  0.7775
      Cm = -0.0797     CD =  0.00586   =>   CDf =  0.00423    CDp =  0.00163

 Side 1  free  transition at x/c =  0.5141   52
 Side 2 forced transition at x/c =  1.0000   76

   2   rms: 0.4192E-01   max: 0.6707E+00   D at    2  1
       a =  3.500      CL =  0.7859
      Cm = -0.0797     CD =  0.00588   =>   CDf =  0.00428    CDp =  0.00160

 Side 1  free  transition at x/c =  0.5112   52
 Side 2 forced transition at x/c =  1.0000   76

   3   rms: 0.1869E-02   max: 0.1804E-01   D at    4  1
       a =  3.500      CL =  0.7859
      Cm = -0.0797     CD =  0.00589   =>   CDf =  0.00429    CDp =  0.00160

 Side 1  free  transition at x/c =  0.5114   52
 Side 2 forced transition at x/c =  1.0000   76

   4   rms: 0.4149E-05   max: -.5656E-04   D at   53  1
       a =  3.500      CL =  0.7859
      Cm = -0.0797     CD =  0.00589   =>   CDf =  0.00428    CDp =  0.00160

 Point added to stored polar  1
 Point written to save file  polar_tmp.dat                                   
 Dump file unspecified or not available
 Calculating wake trajectory ...
 Calculating source influence matrix ...

 Solving BL system ...

 Side 1  free  transition at x/c =  0.5114   52
 Side 2 forced transition at x/c =  1.0000   76

   1   rms: 0.1822E-01   max: -.2687E-01   n at   68  2
       a =  3.600      CL =  0.7970
      Cm = -0.0797     CD =  0.00592   =>   CDf =  0.00428    CDp =  0.00164

 Side 1  free  transition at x/c =  0.5074   52
 Side 2 forced transition at x/c =  1.0000   76

   2   rms: 0.1002E-02   max: -.1469E-01   C at   52  1
       a =  3.600      CL =  0.7969
      Cm = -0.0797     CD =  0.00593   =>   CDf =  0.00430    CDp =  0.00163

 Side 1  free  transition at x/c =  0.5078   52
 Side 2 forced transition at x/c =  1.0000   76

   3   rms: 0.6436E-05   max: -.1163E-03   D at   53  1
       a =  3.600      CL =  0.7969
      Cm = -0.0797     CD =  0.00593   =>   CDf =  0.00429    CDp =  0.00163

 Point added to stored polar  1
 Point written to save file  polar_tmp.dat                                   
 Dump file unspecified or not available
 Calculating wake trajectory ...
 Calculating source influence matrix ...

 Solving BL system ...

 Side 1  free  transition at x/c =  0.5078   52
 Side 2 forced transition at x/c =  1.0000   76

   1   rms: 0.1880E-01   max: -.2865E-01   n at   71  2
       a =  3.700      CL =  0.8078
      Cm = -0.0796     CD =  0.00598   =>   CDf =  0.00429    CDp =  0.00168

 Side 1  free  transition at x/c =  0.5035   51
 Side 2 forced transition at x/c =  1.0000   76

   2   rms: 0.1082E-02   max: -.2048E-01   C at   51  1
       a =  3.700      CL =  0.8077
      Cm = -0.0796     CD =  0.00599   =>   CDf =  0.00432    CDp =  0.00166

 Side 1  free  transition at x/c =  0.5038   51
 Side 2 forced transition at x/c =  1.0000   76

   3   rms: 0.5848E-05   max: -.6047E-04   D at   52  1
       a =  3.700      CL =  0.8077
      Cm = -0.0796     CD =  0.00599   =>   CDf =  0.00432    CDp =  0.00167

 Point added to stored polar  1
 Point written to save file  polar_tmp.dat                                   
 Dump file unspecified or not available
 Calculating wake trajectory ...
 Calculating source influence matrix ...

 Solving BL system ...

 Side 1  free  transition at x/c =  0.5038   51
 Side 2 forced transition at x/c =  1.0000   76

   1   rms: 0.1856E-01   max: -.2673E-01   n at   68  2
       a =  3.800      CL =  0.8190
      Cm = -0.0797     CD =  0.00600   =>   CDf =  0.00432    CDp =  0.00168

 Side 1  free  transition at x/c =  0.4975   51
 Side 2 forced transition at x/c =  1.0000   76

   2   rms: 0.3077E-02   max: -.5306E-01   C at   51  1
       a =  3.800      CL =  0.8189
      Cm = -0.0796     CD =  0.00601   =>   CDf =  0.00432    CDp =  0.00169

 Side 1  free  transition at x/c =  0.4987   51
 Side 2 forced transition at x/c =  1.0000   76

   3   rms: 0.5845E-04   max: -.1154E-02   D at   52  1
       a =  3.800      CL =  0.8189
      Cm = -0.0796     CD =  0.00601   =>   CDf =  0.00431    CDp =  0.00170

 Point added to stored polar  1
 Point written to save file  polar_tmp.dat                                   
 Dump file unspecified or not available
 Calculating wake trajectory ...
 Calculating source influence matrix ...

 Solving BL system ...

 Side 1  free  transition at x/c =  0.4987   51
 Side 2 forced transition at x/c =  1.0000   76

   1   rms: 0.1959E-01   max: -.2268E-01   n at   68  2
       a =  3.900      CL =  0.8299
      Cm = -0.0796     CD =  0.00605   =>   CDf =  0.00431    CDp =  0.00173

 Side 1  free  transition at x/c =  0.4913   51
 Side 2 forced transition at x/c =  1.0000   76

   2   rms: 0.3281E-02   max: -.4246E-01   C at   51  1
       a =  3.900      CL =  0.8297
      Cm = -0.0796     CD =  0.00606   =>   CDf =  0.00435    CDp =  0.00171

 Side 1  free  transition at x/c =  0.4924   51
 Side 2 forced transition at x/c =  1.0000   76

   3   rms: 0.8237E-04   max: -.1636E-02   D at   52  1
       a =  3.900      CL =  0.8297
      Cm = -0.0796     CD =  0.00606   =>   CDf =  0.00434    CDp =  0.00173

 Point added to stored polar  1
 Point written to save file  polar_tmp.dat                                   
 Dump file unspecified or not available
 Calculating wake trajectory ...
 Calculating source influence matrix ...

 Solving BL system ...

 Side 1  free  transition at x/c =  0.4924   51
 Side 2 forced transition at x/c =  1.0000   76

   1   rms: 0.2104E-01   max: -.1329E+00   D at   51  1
       a =  4.000      CL =  0.8404
      Cm = -0.0795     CD =  0.00614   =>   CDf =  0.00434    CDp =  0.00180

 Side 1  free  transition at x/c =  0.4870   50
 Side 2 forced transition at x/c =  1.0000   76

   2   rms: 0.1300E-02   max: -.1510E-01   D at   51  1
       a =  4.000      CL =  0.8406
      Cm = -0.0796     CD =  0.00611   =>   CDf =  0.00435    CDp =  0.00176

 Side 1  free  transition at x/c =  0.4867   50
 Side 2 forced transition at x/c =  1.0000   76

   3   rms: 0.2245E-05   max: 0.1052E-04   D at   53  1
       a =  4.000      CL =  0.8406
      Cm = -0.0796     CD =  0.00611   =>   CDf =  0.00435    CDp =  0.00176

 Point added to stored polar  1
 Point written to save file  polar_tmp.dat                                   
 Dump file unspecified or not available
 Calculating wake trajectory ...
 Calculating source influence matrix ...

 Solving BL system ...

 Side 1  free  transition at x/c =  0.4867   50
 Side 2 forced transition at x/c =  1.0000   76

   1   rms: 0.1966E-01   max: -.1595E-01   C at   76  2
       a =  4.100      CL =  0.8517
      Cm = -0.0796     CD =  0.00615   =>   CDf =  0.00435    CDp =  0.00180

 Side 1  free  transition at x/c =  0.4787   50
 Side 2 forced transition at x/c =  1.0000   76

   2   rms: 0.2625E-02   max: -.4123E-01   C at   50  1
       a =  4.100      CL =  0.8515
      Cm = -0.0795     CD =  0.00617   =>   CDf =  0.00438    CDp =  0.00179

 Side 1  free  transition at x/c =  0.4797   50
 Side 2 forced transition at x/c =  1.0000   76

   3   rms: 0.4022E-04   max: -.8402E-03   D at   51  1
       a =  4.100      CL =  0.8515
      Cm = -0.0795     CD =  0.00617   =>   CDf =  0.00437    CDp =  0.00180

 Point added to stored polar  1
 Point written to save file  polar_tmp.dat                                   
 Dump file unspecified or not available
 Calculating wake trajectory ...
 Calculating source influence matrix ...

 Solving BL system ...

 Side 1  free  transition at x/c =  0.4796   50
 Side 2 forced transition at x/c =  1.0000   76

   1   rms: 0.2079E-01   max: 0.1500E+00   C at   50  1
       a =  4.200      CL =  0.8622
      Cm = -0.0795     CD =  0.00624   =>   CDf =  0.00437    CDp =  0.00187

 Side 1  free  transition at x/c =  0.4744   49
 Side 2 forced transition at x/c =  1.0000   76

   2   rms: 0.7288E-03   max: -.1176E-01   D at   51  1
       a =  4.200      CL =  0.8622
      Cm = -0.0795     CD =  0.00623   =>   CDf =  0.00439    CDp =  0.00184

 Side 1  free  transition at x/c =  0.4741   49
 Side 2 forced transition at x/c =  1.0000   76

   3   rms: 0.4857E-05   max: -.8320E-04   C at   49  1
       a =  4.200      CL =  0.8622
      Cm = -0.0795     CD =  0.00623   =>   CDf =  0.00439    CDp =  0.00184

 Point added to stored polar  1
 Point written to save file  polar_tmp.dat                                   
 Dump file unspecified or not available
 Calculating wake trajectory ...
 Calculating source influence matrix ...

 Solving BL system ...

 Side 1  free  transition at x/c =  0.4741   49
 Side 2 forced transition at x/c =  1.0000   76

   1   rms: 0.1793E-01   max: -.1543E-01   C at   76  2
       a =  4.300      CL =  0.8734
      Cm = -0.0795     CD =  0.00626   =>   CDf =  0.00431    CDp =  0.00196

 Side 1  free  transition at x/c =  0.4687   50
 Side 2 forced transition at x/c =  1.0000   75

   2   rms: 0.8974E-02   max: -.1559E+00   T at    2  1
       a =  4.300      CL =  0.8733
      Cm = -0.0795     CD =  0.00627   =>   CDf =  0.00438    CDp =  0.00189

 Side 1  free  transition at x/c =  0.4690   50
 Side 2 forced transition at x/c =  1.0000   75

   3   rms: 0.1885E-02   max: -.1799E-01   D at    4  1
       a =  4.300      CL =  0.8733
      Cm = -0.0795     CD =  0.00627   =>   CDf =  0.00438    CDp =  0.00189

 Side 1  free  transition at x/c =  0.4690   50
 Side 2 forced transition at x/c =  1.0000   75

   4   rms: 0.3280E-05   max: -.4071E-04   D at    9  1
       a =  4.300      CL =  0.8733
      Cm = -0.0795     CD =  0.00627   =>   CDf =  0.00438    CDp =  0.00189

 Point added to stored polar  1
 Point written to save file  polar_tmp.dat                                   
 Dump file unspecified or not available
 Calculating wake trajectory ...
 Calculating source influence matrix ...

 Solving BL system ...

 Side 1  free  transition at x/c =  0.4690   50
 Side 2 forced transition at x/c =  1.0000   75

   1   rms: 0.1847E-01   max: 0.1150E+00   C at   50  1
       a =  4.400      CL =  0.8842
      Cm = -0.0795     CD =  0.00632   =>   CDf =  0.00438    CDp =  0.00194

 Side 1  free  transition at x/c =  0.4627   50
 Side 2 forced transition at x/c =  1.0000   75

   2   rms: 0.2346E-02   max: -.3360E-01   C at   50  1
       a =  4.400      CL =  0.8841
      Cm = -0.0794     CD =  0.00633   =>   CDf =  0.00441    CDp =  0.00192

 Side 1  free  transition at x/c =  0.4636   50
 Side 2 forced transition at x/c =  1.0000   75

   3   rms: 0.4032E-04   max: -.7427E-03   D at   51  1
       a =  4.400      CL =  0.8841
      Cm = -0.0794     CD =  0.00633   =>   CDf =  0.00440    CDp =  0.00193

 Point added to stored polar  1
 Point written to save file  polar_tmp.dat                                   
 Dump file unspecified or not available
 Calculating wake trajectory ...
 Calculating source influence matrix ...

 Solving BL system ...

 Side 1  free  transition at x/c =  0.4636   50
 Side 2 forced transition at x/c =  1.0000   75

   1   rms: 0.2051E-01   max: 0.1522E+00   C at   50  1
       a =  4.500      CL =  0.8947
      Cm = -0.0794     CD =  0.00642   =>   CDf =  0.00440    CDp =  0.00202

 Side 1  free  transition at x/c =  0.4558   49
 Side 2 forced transition at x/c =  1.0000   75

   2   rms: 0.1830E-02   max: -.3117E-01   C at   49  1
       a =  4.500      CL =  0.8948
      Cm = -0.0794     CD =  0.00640   =>   CDf =  0.00442    CDp =  0.00198

 Side 1  free  transition at x/c =  0.4564   49
 Side 2 forced transition at x/c =  1.0000   75

   3   rms: 0.6406E-05   max: -.1139E-03   C at   49  1
       a =  4.500      CL =  0.8948
      Cm = -0.0794     CD =  0.00640   =>   CDf =  0.00442    CDp =  0.00198

 Point added to stored polar  1
 Point written to save file  polar_tmp.dat                                   
 Dump file unspecified or not available
 Calculating wake trajectory ...
 Calculating source influence matrix ...

 Solving BL system ...

 Side 1  free  transition at x/c =  0.4564   49
 Side 2 forced transition at x/c =  1.0000   75

   1   rms: 0.2246E-01   max: 0.2122E+00   C at   49  1
       a =  4.600      CL =  0.9056
      Cm = -0.0794     CD =  0.00646   =>   CDf =  0.00442    CDp =  0.00205

 Side 1  free  transition at x/c =  0.4433   48
 Side 2 forced transition at x/c =  1.0000   75

   2   rms: 0.4397E-02   max: -.8989E-01   C at   48  1
       a =  4.600      CL =  0.9053
      Cm = -0.0793     CD =  0.00650   =>   CDf =  0.00447    CDp =  0.00202

 Side 1  free  transition at x/c =  0.4453   48
 Side 2 forced transition at x/c =  1.0000   75

   3   rms: 0.5192E-04   max: -.9507E-03   D at   49  1
       a =  4.600      CL =  0.9053
      Cm = -0.0793     CD =  0.00650   =>   CDf =  0.00446    CDp =  0.00203

 Point added to stored polar  1
 Point written to save file  polar_tmp.dat                                   
 Dump file unspecified or not available
 Calculating wake trajectory ...
 Calculating source influence matrix ...

 Solving BL system ...

 Side 1  free  transition at x/c =  0.4453   48
 Side 2 forced transition at x/c =  1.0000   75

   1   rms: 0.2273E-01   max: 0.2080E+00   C at   48  1
       a =  4.700      CL =  0.9161
      Cm = -0.0793     CD =  0.00656   =>   CDf =  0.00446    CDp =  0.00209

 Side 1  free  transition at x/c =  0.4303   47
 Side 2 forced transition at x/c =  1.0000   75

   2   rms: 0.4663E-02   max: -.9695E-01   C at   47  1
       a =  4.700      CL =  0.9156
      Cm = -0.0792     CD =  0.00661   =>   CDf =  0.00453    CDp =  0.00208

 Side 1  free  transition at x/c =  0.4325   47
 Side 2 forced transition at x/c =  1.0000   75

   3   rms: 0.4552E-04   max: -.6308E-03   D at   48  1
       a =  4.700      CL =  0.9156
      Cm = -0.0792     CD =  0.00661   =>   CDf =  0.00452    CDp =  0.00209

 Point added to stored polar  1
 Point written to save file  polar_tmp.dat                                   
 Dump file unspecified or not available
 Calculating wake trajectory ...
 Calculating source influence matrix ...

 Solving BL system ...

 Side 1  free  transition at x/c =  0.4324   47
 Side 2 forced transition at x/c =  1.0000   75

   1   rms: 0.2263E-01   max: 0.2225E+00   C at   47  1
       a =  4.800      CL =  0.9264
      Cm = -0.0792     CD =  0.00667   =>   CDf =  0.00452    CDp =  0.00215

 Side 1  free  transition at x/c =  0.4166   46
 Side 2 forced transition at x/c =  1.0000   75

   2   rms: 0.4855E-02   max: -.1027E+00   C at   46  1
       a =  4.800      CL =  0.9259
      Cm = -0.0791     CD =  0.00673   =>   CDf =  0.00458    CDp =  0.00215

 Side 1  free  transition at x/c =  0.4188   46
 Side 2 forced transition at x/c =  1.0000   75

   3   rms: 0.4741E-04   max: -.7988E-03   D at   48  1
       a =  4.800      CL =  0.9259
      Cm = -0.0791     CD =  0.00673   =>   CDf =  0.00457    CDp =  0.00216

 Point added to stored polar  1
 Point written to save file  polar_tmp.dat                                   
 Dump file unspecified or not available
 Calculating wake trajectory ...
 Calculating source influence matrix ...

 Solving BL system ...

 Side 1  free  transition at x/c =  0.4188   46
 Side 2 forced transition at x/c =  1.0000   75

   1   rms: 0.2219E-01   max: 0.2546E+00   C at   46  1
       a =  4.900      CL =  0.9366
      Cm = -0.0791     CD =  0.00680   =>   CDf =  0.00457    CDp =  0.00223

 Side 1  free  transition at x/c =  0.4035   45
 Side 2 forced transition at x/c =  1.0000   75

   2   rms: 0.4772E-02   max: -.1027E+00   C at   45  1
       a =  4.900      CL =  0.9361
      Cm = -0.0790     CD =  0.00685   =>   CDf =  0.00463    CDp =  0.00222

 Side 1  free  transition at x/c =  0.4054   46
 Side 2 forced transition at x/c =  1.0000   75

   3   rms: 0.8448E-03   max: -.1430E-01   C at   46  1
       a =  4.900      CL =  0.9361
      Cm = -0.0790     CD =  0.00685   =>   CDf =  0.00462    CDp =  0.00222

 Side 1  free  transition at x/c =  0.4055   46
 Side 2 forced transition at x/c =  1.0000   75

   4   rms: 0.5545E-05   max: 0.9952E-04   C at   46  1
       a =  4.900      CL =  0.9361
      Cm = -0.0790     CD =  0.00685   =>   CDf =  0.00462    CDp =  0.00223

 Point added to stored polar  1
 Point written to save file  polar_tmp.dat                                   
 Dump file unspecified or not available
 Calculating wake trajectory ...
 Calculating source influence matrix ...

 Solving BL system ...

 Side 1  free  transition at x/c =  0.4055   46
 Side 2 forced transition at x/c =  1.0000   75

   1   rms: 0.3351E-01   max: 0.4585E+00   C at   46  1
       a =  5.000      CL =  0.9458
      Cm = -0.0788     CD =  0.00704   =>   CDf =  0.00462    CDp =  0.00242

 Side 1  free  transition at x/c =  0.3896   44
 Side 2 forced transition at x/c =  1.0000   75

   2   rms: 0.5370E-02   max: 0.8999E-01   D at   45  1
       a =  5.000      CL =  0.9462
      Cm = -0.0789     CD =  0.00699   =>   CDf =  0.00469    CDp =  0.00231

 Side 1  free  transition at x/c =  0.3903   44
 Side 2 forced transition at x/c =  1.0000   75

   3   rms: 0.3100E-03   max: 0.6888E-02   C at   44  1
       a =  5.000      CL =  0.9462
      Cm = -0.0789     CD =  0.00699   =>   CDf =  0.00468    CDp =  0.00231

 Side 1  free  transition at x/c =  0.3902   44
 Side 2 forced transition at x/c =  1.0000   75

   4   rms: 0.7115E-06   max: 0.3794E-05   C at   75  2
       a =  5.000      CL =  0.9462
      Cm = -0.0789     CD =  0.00699   =>   CDf =  0.00468    CDp =  0.00231

 Point added to stored polar  1
 Point written to save file  polar_tmp.dat                                   
 Dump file unspecified or not available
 Calculating wake trajectory ...
 Calculating source influence matrix ...

 Solving BL system ...

 Side 1  free  transition at x/c =  0.3902   44
 Side 2 forced transition at x/c =  1.0000   75

   1   rms: 0.2567E-01   max: 0.4110E+00   C at   44  1
       a =  5.100      CL =  0.9568
      Cm = -0.0788     CD =  0.00709   =>   CDf =  0.00468    CDp =  0.00240

 Side 1  free  transition at x/c =  0.3720   43
 Side 2 forced transition at x/c =  1.0000   75

   2   rms: 0.5571E-02   max: -.1217E+00   C at   43  1
       a =  5.100      CL =  0.9563
      Cm = -0.0787     CD =  0.00714   =>   CDf =  0.00476    CDp =  0.00238

 Side 1  free  transition at x/c =  0.3745   43
 Side 2 forced transition at x/c =  1.0000   75

   3   rms: 0.8136E-04   max: 0.1390E-02   C at   43  1
       a =  5.100      CL =  0.9563
      Cm = -0.0787     CD =  0.00714   =>   CDf =  0.00475    CDp =  0.00240

 Point added to stored polar  1
 Point written to save file  polar_tmp.dat                                   
 Dump file unspecified or not available
 Calculating wake trajectory ...
 Calculating source influence matrix ...

 Solving BL system ...

 Side 1  free  transition at x/c =  0.3745   43
 Side 2 forced transition at x/c =  1.0000   75

   1   rms: 0.3187E-01   max: 0.5925E+00   C at   43  1
       a =  5.200      CL =  0.9665
      Cm = -0.0786     CD =  0.00727   =>   CDf =  0.00464    CDp =  0.00264

 Side 1  free  transition at x/c =  0.3515   43
 Side 2 forced transition at x/c =  1.0000   74

   2   rms: 0.1404E-01   max: -.1997E+00   T at    2  1
       a =  5.200      CL =  0.9660
      Cm = -0.0786     CD =  0.00732   =>   CDf =  0.00484    CDp =  0.00248

 Side 1  free  transition at x/c =  0.3554   43
 Side 2 forced transition at x/c =  1.0000   74

   3   rms: 0.2151E-02   max: -.1959E-01   D at    4  1
       a =  5.200      CL =  0.9660
      Cm = -0.0786     CD =  0.00733   =>   CDf =  0.00482    CDp =  0.00251

 Side 1  free  transition at x/c =  0.3549   43
 Side 2 forced transition at x/c =  1.0000   74

   4   rms: 0.2454E-04   max: -.5247E-03   C at   43  1
       a =  5.200      CL =  0.9660
      Cm = -0.0786     CD =  0.00733   =>   CDf =  0.00482    CDp =  0.00251

 Point added to stored polar  1
 Point written to save file  polar_tmp.dat                                   
 Dump file unspecified or not available
 Calculating wake trajectory ...
 Calculating source influence matrix ...

 Solving BL system ...

 Side 1  free  transition at x/c =  0.3549   43
 Side 2 forced transition at x/c =  1.0000   74

   1   rms: 0.4608E-01   max: 0.9251E+00   C at   43  1
       a =  5.300      CL =  0.9755
      Cm = -0.0784     CD =  0.00755   =>   CDf =  0.00482    CDp =  0.00273

 Side 1  free  transition at x/c =  0.3278   41
 Side 2 forced transition at x/c =  1.0000   74

   2   rms: 0.7309E-02   max: -.1453E+00   C at   41  1
       a =  5.300      CL =  0.9752
      Cm = -0.0783     CD =  0.00758   =>   CDf =  0.00495    CDp =  0.00263

 Side 1  free  transition at x/c =  0.3305   41
 Side 2 forced transition at x/c =  1.0000   74

   3   rms: 0.3070E-03   max: 0.6127E-02   C at   41  1
       a =  5.300      CL =  0.9752
      Cm = -0.0783     CD =  0.00758   =>   CDf =  0.00493    CDp =  0.00264

 Side 1  free  transition at x/c =  0.3304   41
 Side 2 forced transition at x/c =  1.0000   74

   4   rms: 0.8695E-06   max: -.4854E-05   D at   42  1
       a =  5.300      CL =  0.9752
      Cm = -0.0783     CD =  0.00758   =>   CDf =  0.00493    CDp =  0.00264

 Point added to stored polar  1
 Point written to save file  polar_tmp.dat                                   
 Dump file unspecified or not available
 Calculating wake trajectory ...
 Calculating source influence matrix ...

 Solving BL system ...

 Side 1  free  transition at x/c =  0.3304   41
 Side 2 forced transition at x/c =  1.0000   74

   1   rms: 0.5767E-01   max: 0.1247E+01   C at   41  1
       a =  5.400      CL =  0.9844
      Cm = -0.0781     CD =  0.00783   =>   CDf =  0.00493    CDp =  0.00290

 Side 1  free  transition at x/c =  0.2968   39
 Side 2 forced transition at x/c =  1.0000   74

   2   rms: 0.1008E-01   max: -.2021E+00   C at   39  1
       a =  5.400      CL =  0.9839
      Cm = -0.0781     CD =  0.00788   =>   CDf =  0.00510    CDp =  0.00278

 Side 1  free  transition at x/c =  0.3007   39
 Side 2 forced transition at x/c =  1.0000   74

   3   rms: 0.2895E-03   max: -.4904E-02   D at   40  1
       a =  5.400      CL =  0.9838
      Cm = -0.0781     CD =  0.00789   =>   CDf =  0.00508    CDp =  0.00281

 Side 1  free  transition at x/c =  0.3007   39
 Side 2 forced transition at x/c =  1.0000   74

   4   rms: 0.1307E-05   max: -.2742E-04   C at   39  1
       a =  5.400      CL =  0.9838
      Cm = -0.0781     CD =  0.00789   =>   CDf =  0.00508    CDp =  0.00281

 Point added to stored polar  1
 Point written to save file  polar_tmp.dat                                   
 Dump file unspecified or not available
 Calculating wake trajectory ...
 Calculating source influence matrix ...

 Solving BL system ...

 Side 1  free  transition at x/c =  0.3007   39
 Side 2 forced transition at x/c =  1.0000   74

   1   rms: 0.7593E-01   max: 0.1683E+01   C at   39  1   RLX: 0.891
       a =  5.500      CL =  0.9913
      Cm = -0.0778     CD =  0.00820   =>   CDf =  0.00508    CDp =  0.00312

 Side 1  free  transition at x/c =  0.2677   37
 Side 2 forced transition at x/c =  1.0000   74

   2   rms: 0.5552E-02   max: 0.7541E-01   D at   38  1
       a =  5.500      CL =  0.9920
      Cm = -0.0777     CD =  0.00826   =>   CDf =  0.00525    CDp =  0.00301

 Side 1  free  transition at x/c =  0.2672   37
 Side 2 forced transition at x/c =  1.0000   74

   3   rms: 0.9877E-04   max: 0.1466E-02   D at   37  1
       a =  5.500      CL =  0.9920
      Cm = -0.0777     CD =  0.00826   =>   CDf =  0.00525    CDp =  0.00301

 Point added to stored polar  1
 Point written to save file  polar_tmp.dat                                   
 Dump file unspecified or not available
 Calculating wake trajectory ...
 Calculating source influence matrix ...

 Solving BL system ...

 Side 1  free  transition at x/c =  0.2672   37
 Side 2 forced transition at x/c =  1.0000   74

   1   rms: 0.6383E-01   max: 0.1279E+01   C at   37  1
       a =  5.600      CL =  1.0001
      Cm = -0.0773     CD =  0.00865   =>   CDf =  0.00525    CDp =  0.00340

 Side 1  free  transition at x/c =  0.2388   35
 Side 2 forced transition at x/c =  1.0000   74

   2   rms: 0.7758E-02   max: 0.1083E+00   D at   36  1
       a =  5.600      CL =  1.0005
      Cm = -0.0774     CD =  0.00859   =>   CDf =  0.00540    CDp =  0.00320

 Side 1  free  transition at x/c =  0.2398   35
 Side 2 forced transition at x/c =  1.0000   74

   3   rms: 0.2827E-03   max: 0.5143E-02   C at   35  1
       a =  5.600      CL =  1.0005
      Cm = -0.0774     CD =  0.00859   =>   CDf =  0.00539    CDp =  0.00321

 Side 1  free  transition at x/c =  0.2398   35
 Side 2 forced transition at x/c =  1.0000   74

   4   rms: 0.1631E-05   max: 0.3407E-04   C at   35  1
       a =  5.600      CL =  1.0005
      Cm = -0.0774     CD =  0.00859   =>   CDf =  0.00539    CDp =  0.00320

 Point added to stored polar  1
 Point written to save file  polar_tmp.dat                                   
 Dump file unspecified or not available
 Calculating wake trajectory ...
 Calculating source influence matrix ...

 Solving BL system ...

 Side 1  free  transition at x/c =  0.2398   35
 Side 2 forced transition at x/c =  1.0000   74

   1   rms: 0.7096E-01   max: 0.1443E+01   C at   35  1
       a =  5.700      CL =  1.0082
      Cm = -0.0770     CD =  0.00903   =>   CDf =  0.00539    CDp =  0.00364

 Side 1  free  transition at x/c =  0.2109   33
 Side 2 forced transition at x/c =  1.0000   74

   2   rms: 0.8144E-02   max: 0.1043E+00   D at   34  1
       a =  5.700      CL =  1.0088
      Cm = -0.0771     CD =  0.00895   =>   CDf =  0.00554    CDp =  0.00340

 Side 1  free  transition at x/c =  0.2114   33
 Side 2 forced transition at x/c =  1.0000   74

   3   rms: 0.2453E-03   max: 0.4498E-02   C at   33  1
       a =  5.700      CL =  1.0087
      Cm = -0.0771     CD =  0.00895   =>   CDf =  0.00554    CDp =  0.00341

 Side 1  free  transition at x/c =  0.2113   33
 Side 2 forced transition at x/c =  1.0000   74

   4   rms: 0.9382E-06   max: -.5846E-05   C at   33  1
       a =  5.700      CL =  1.0087
      Cm = -0.0771     CD =  0.00895   =>   CDf =  0.00554    CDp =  0.00341

 Point added to stored polar  1
 Point written to save file  polar_tmp.dat                                   
 Dump file unspecified or not available
 Calculating wake trajectory ...
 Calculating source influence matrix ...

 Solving BL system ...

 Side 1  free  transition at x/c =  0.2113   33
 Side 2 forced transition at x/c =  1.0000   74

   1   rms: 0.5367E-01   max: 0.1022E+01   C at   33  1
       a =  5.800      CL =  1.0171
      Cm = -0.0767     CD =  0.00931   =>   CDf =  0.00554    CDp =  0.00377

 Side 1  free  transition at x/c =  0.1826   31
 Side 2 forced transition at x/c =  1.0000   74

   2   rms: 0.8483E-02   max: 0.1122E+00   D at   32  1
       a =  5.800      CL =  1.0170
      Cm = -0.0767     CD =  0.00929   =>   CDf =  0.00569    CDp =  0.00360

 Side 1  free  transition at x/c =  0.1848   31
 Side 2 forced transition at x/c =  1.0000   74

   3   rms: 0.5357E-03   max: 0.1056E-01   C at   31  1
       a =  5.800      CL =  1.0170
      Cm = -0.0767     CD =  0.00929   =>   CDf =  0.00567    CDp =  0.00362

 Side 1  free  transition at x/c =  0.1846   31
 Side 2 forced transition at x/c =  1.0000   74

   4   rms: 0.2331E-05   max: 0.5905E-05   C at   51  1
       a =  5.800      CL =  1.0170
      Cm = -0.0767     CD =  0.00929   =>   CDf =  0.00568    CDp =  0.00362

 Point added to stored polar  1
 Point written to save file  polar_tmp.dat                                   
 Dump file unspecified or not available
 Calculating wake trajectory ...
 Calculating source influence matrix ...

 Solving BL system ...

 Side 1  free  transition at x/c =  0.1846   31
 Side 2 forced transition at x/c =  1.0000   74

   1   rms: 0.7017E-01   max: 0.1390E+01   C at   31  1   RLX: 0.974
       a =  5.900      CL =  1.0243
      Cm = -0.0763     CD =  0.00974   =>   CDf =  0.00568    CDp =  0.00407

 Side 1  free  transition at x/c =  0.1607   29
 Side 2 forced transition at x/c =  1.0000   74

   2   rms: 0.8339E-02   max: -.9830E-01   D at   31  1
       a =  5.900      CL =  1.0254
      Cm = -0.0764     CD =  0.00963   =>   CDf =  0.00580    CDp =  0.00383

 Side 1  free  transition at x/c =  0.1595   29
 Side 2 forced transition at x/c =  1.0000   74

   3   rms: 0.1426E-03   max: 0.5345E-03   U at   31  1
       a =  5.900      CL =  1.0254
      Cm = -0.0764     CD =  0.00963   =>   CDf =  0.00581    CDp =  0.00382

 Side 1  free  transition at x/c =  0.1594   29
 Side 2 forced transition at x/c =  1.0000   74

   4   rms: 0.1194E-05   max: 0.2695E-04   C at   29  1
       a =  5.900      CL =  1.0254
      Cm = -0.0764     CD =  0.00963   =>   CDf =  0.00581    CDp =  0.00382

 Point added to stored polar  1
 Point written to save file  polar_tmp.dat                                   
 Dump file unspecified or not available
 Calculating wake trajectory ...
 Calculating source influence matrix ...

 Solving BL system ...

 Side 1  free  transition at x/c =  0.1594   29
 Side 2 forced transition at x/c =  1.0000   74

   1   rms: 0.6633E-01   max: 0.1404E+01   C at   29  1
       a =  6.000      CL =  1.0333
      Cm = -0.0760     CD =  0.01002   =>   CDf =  0.00581    CDp =  0.00422

 Side 1  free  transition at x/c =  0.1343   27
 Side 2 forced transition at x/c =  1.0000   74

   2   rms: 0.6208E-02   max: 0.8208E-01   D at   28  1
       a =  6.000      CL =  1.0335
      Cm = -0.0760     CD =  0.00999   =>   CDf =  0.00595    CDp =  0.00404

 Side 1  free  transition at x/c =  0.1344   27
 Side 2 forced transition at x/c =  1.0000   74

   3   rms: 0.1537E-03   max: 0.3313E-02   C at   27  1
       a =  6.000      CL =  1.0335
      Cm = -0.0760     CD =  0.00999   =>   CDf =  0.00595    CDp =  0.00404

 Side 1  free  transition at x/c =  0.1343   27
 Side 2 forced transition at x/c =  1.0000   74

   4   rms: 0.1066E-05   max: -.1709E-04   C at   27  1
       a =  6.000      CL =  1.0335
      Cm = -0.0760     CD =  0.00999   =>   CDf =  0.00595    CDp =  0.00404

 Point added to stored polar  1
 Point written to save file  polar_tmp.dat                                   
 Dump file unspecified or not available
 Calculating wake trajectory ...
 Calculating source influence matrix ...

 Solving BL system ...

 Side 1  free  transition at x/c =  0.1343   27
 Side 2 forced transition at x/c =  1.0000   74

   1   rms: 0.6086E-01   max: 0.1339E+01   C at   27  1
       a =  6.100      CL =  1.0418
      Cm = -0.0757     CD =  0.01033   =>   CDf =  0.00595    CDp =  0.00438

 Side 1  free  transition at x/c =  0.1122   25
 Side 2 forced transition at x/c =  1.0000   74

   2   rms: 0.5061E-02   max: 0.7112E-01   D at   26  1
       a =  6.100      CL =  1.0417
      Cm = -0.0757     CD =  0.01033   =>   CDf =  0.00607    CDp =  0.00426

 Side 1  free  transition at x/c =  0.1126   25
 Side 2 forced transition at x/c =  1.0000   74

   3   rms: 0.1846E-03   max: 0.4446E-02   C at   25  1
       a =  6.100      CL =  1.0417
      Cm = -0.0757     CD =  0.01033   =>   CDf =  0.00607    CDp =  0.00426

 Side 1  free  transition at x/c =  0.1125   25
 Side 2 forced transition at x/c =  1.0000   74

   4   rms: 0.9007E-06   max: -.7262E-05   C at   74  2
       a =  6.100      CL =  1.0417
      Cm = -0.0757     CD =  0.01033   =>   CDf =  0.00607    CDp =  0.00426

 Point added to stored polar  1
 Point written to save file  polar_tmp.dat                                   
 Dump file unspecified or not available
 Calculating wake trajectory ...
 Calculating source influence matrix ...

 Solving BL system ...

 Side 1  free  transition at x/c =  0.1125   25
 Side 2 forced transition at x/c =  1.0000   74

   1   rms: 0.6348E-01   max: 0.1517E+01   C at   25  1   RLX: 0.989
       a =  6.200      CL =  1.0505
      Cm = -0.0754     CD =  0.01060   =>   CDf =  0.00593    CDp =  0.00467

 Side 1  free  transition at x/c =  0.0902   25
 Side 2 forced transition at x/c =  1.0000   73

   2   rms: 0.2643E-01   max: -.4545E+00   D at    2  1
       a =  6.200      CL =  1.0499
      Cm = -0.0753     CD =  0.01067   =>   CDf =  0.00632    CDp =  0.00435

 Side 1  free  transition at x/c =  0.0914   24
 Side 2 forced transition at x/c =  1.0000   74

   3   rms: 0.8495E-02   max: 0.1482E+00   D at    2  2
       a =  6.200      CL =  1.0499
      Cm = -0.0753     CD =  0.01067   =>   CDf =  0.00619    CDp =  0.00448

 Side 1  free  transition at x/c =  0.0913   24
 Side 2 forced transition at x/c =  1.0000   74

   4   rms: 0.2508E-02   max: 0.3271E-01   T at    2  2
       a =  6.200      CL =  1.0499
      Cm = -0.0753     CD =  0.01067   =>   CDf =  0.00604    CDp =  0.00462

 Side 1  free  transition at x/c =  0.0913   25
 Side 2 forced transition at x/c =  1.0000   73

   5   rms: 0.7534E-01   max: 0.1332E+01   D at    2  1   RLX: 0.885
       a =  6.200      CL =  1.0499
      Cm = -0.0753     CD =  0.01067   =>   CDf =  0.00618    CDp =  0.00449

 Side 1  free  transition at x/c =  0.0914   25
 Side 2 forced transition at x/c =  1.0000   73

   6   rms: 0.1679E-02   max: 0.1968E-01   D at    4  1
       a =  6.200      CL =  1.0499
      Cm = -0.0753     CD =  0.01067   =>   CDf =  0.00618    CDp =  0.00449

 Side 1  free  transition at x/c =  0.0913   25
 Side 2 forced transition at x/c =  1.0000   73

   7   rms: 0.3135E-04   max: -.2893E-03   D at    7  1
       a =  6.200      CL =  1.0499
      Cm = -0.0753     CD =  0.01067   =>   CDf =  0.00618    CDp =  0.00449

 Point added to stored polar  1
 Point written to save file  polar_tmp.dat                                   
 Dump file unspecified or not available
 Calculating wake trajectory ...
 Calculating source influence matrix ...

 Solving BL system ...

 Side 1  free  transition at x/c =  0.0913   25
 Side 2 forced transition at x/c =  1.0000   73

   1   rms: 0.6600E-01   max: 0.8995E+00   C at   25  1   RLX: 0.870
       a =  6.300      CL =  1.0562
      Cm = -0.0749     CD =  0.01107   =>   CDf =  0.00618    CDp =  0.00489

 Side 1  free  transition at x/c =  0.0752   23
 Side 2 forced transition at x/c =  1.0000   73

   2   rms: 0.1449E-01   max: 0.2836E+00   C at   23  1
       a =  6.300      CL =  1.0581
      Cm = -0.0750     CD =  0.01101   =>   CDf =  0.00627    CDp =  0.00474

 Side 1  free  transition at x/c =  0.0710   23
 Side 2 forced transition at x/c =  1.0000   73

   3   rms: 0.5520E-03   max: -.9602E-02   C at   23  1
       a =  6.300      CL =  1.0580
      Cm = -0.0749     CD =  0.01101   =>   CDf =  0.00629    CDp =  0.00472

 Side 1  free  transition at x/c =  0.0712   23
 Side 2 forced transition at x/c =  1.0000   73

   4   rms: 0.3635E-05   max: -.7710E-04   C at   23  1
       a =  6.300      CL =  1.0580
      Cm = -0.0749     CD =  0.01101   =>   CDf =  0.00629    CDp =  0.00472

 Point added to stored polar  1
 Point written to save file  polar_tmp.dat                                   
 Dump file unspecified or not available
 Calculating wake trajectory ...
 Calculating source influence matrix ...

 Solving BL system ...

 Side 1  free  transition at x/c =  0.0712   23
 Side 2 forced transition at x/c =  1.0000   73

   1   rms: 0.6496E-01   max: 0.1436E+01   C at   23  1
       a =  6.400      CL =  1.0659
      Cm = -0.0745     CD =  0.01139   =>   CDf =  0.00629    CDp =  0.00510

 Side 1  free  transition at x/c =  0.0474   21
 Side 2 forced transition at x/c =  1.0000   73

   2   rms: 0.5289E-02   max: -.5658E-01   D at   23  1
       a =  6.400      CL =  1.0653
      Cm = -0.0745     CD =  0.01145   =>   CDf =  0.00644    CDp =  0.00501

 Side 1  free  transition at x/c =  0.0475   21
 Side 2 forced transition at x/c =  1.0000   73

   3   rms: 0.1341E-03   max: 0.2834E-02   C at   21  1
       a =  6.400      CL =  1.0653
      Cm = -0.0745     CD =  0.01145   =>   CDf =  0.00643    CDp =  0.00501

 Side 1  free  transition at x/c =  0.0474   21
 Side 2 forced transition at x/c =  1.0000   73

   4   rms: 0.9079E-06   max: 0.6844E-05   C at   21  1
       a =  6.400      CL =  1.0653
      Cm = -0.0745     CD =  0.01145   =>   CDf =  0.00643    CDp =  0.00501

 Point added to stored polar  1
 Point written to save file  polar_tmp.dat                                   
 Dump file unspecified or not available
 Calculating wake trajectory ...
 Calculating source influence matrix ...

 Solving BL system ...

 Side 1  free  transition at x/c =  0.0474   21
 Side 2 forced transition at x/c =  1.0000   73

   1   rms: 0.9018E-01   max: 0.1895E+01   C at   21  1   RLX: 0.735
       a =  6.500      CL =  1.0697
      Cm = -0.0740     CD =  0.01188   =>   CDf =  0.00643    CDp =  0.00544

 Side 1  free  transition at x/c =  0.0346   20
 Side 2 forced transition at x/c =  1.0000   73

   2   rms: 0.1766E-01   max: 0.2101E+00   C at   20  1
       a =  6.500      CL =  1.0726
      Cm = -0.0740     CD =  0.01188   =>   CDf =  0.00652    CDp =  0.00536

 Side 1  free  transition at x/c =  0.0291   19
 Side 2 forced transition at x/c =  1.0000   73

   3   rms: 0.2344E-02   max: 0.3617E-01   C at   19  1
       a =  6.500      CL =  1.0728
      Cm = -0.0740     CD =  0.01185   =>   CDf =  0.00655    CDp =  0.00530

 Side 1  free  transition at x/c =  0.0289   19
 Side 2 forced transition at x/c =  1.0000   73

   4   rms: 0.5133E-04   max: 0.1112E-02   C at   19  1
       a =  6.500      CL =  1.0728
      Cm = -0.0740     CD =  0.01185   =>   CDf =  0.00655    CDp =  0.00530

 Point added to stored polar  1
 Point written to save file  polar_tmp.dat                                   
 Dump file unspecified or not available
 Calculating wake trajectory ...
 Calculating source influence matrix ...

 Solving BL system ...

 Side 1  free  transition at x/c =  0.0289   19
 Side 2 forced transition at x/c =  1.0000   73

   1   rms: 0.6963E-01   max: 0.1503E+01   C at   19  1   RLX: 0.998
       a =  6.600      CL =  1.0801
      Cm = -0.0735     CD =  0.01228   =>   CDf =  0.00655    CDp =  0.00573

 Side 1  free  transition at x/c =  0.0154   17
 Side 2 forced transition at x/c =  1.0000   73

   2   rms: 0.6962E-02   max: -.9948E-01   D at   19  1
       a =  6.600      CL =  1.0804
      Cm = -0.0735     CD =  0.01223   =>   CDf =  0.00665    CDp =  0.00558

 Side 1  free  transition at x/c =  0.0158   17
 Side 2 forced transition at x/c =  1.0000   73

   3   rms: 0.3267E-03   max: 0.7134E-02   C at   17  1
       a =  6.600      CL =  1.0804
      Cm = -0.0735     CD =  0.01223   =>   CDf =  0.00664    CDp =  0.00559

 Side 1  free  transition at x/c =  0.0158   17
 Side 2 forced transition at x/c =  1.0000   73

   4   rms: 0.7701E-06   max: 0.8833E-05   C at   17  1
       a =  6.600      CL =  1.0804
      Cm = -0.0735     CD =  0.01223   =>   CDf =  0.00664    CDp =  0.00559

 Point added to stored polar  1
 Point written to save file  polar_tmp.dat                                   
 Dump file unspecified or not available
 Calculating wake trajectory ...
 Calculating source influence matrix ...

 Solving BL system ...

 Side 1  free  transition at x/c =  0.0158   17
 Side 2 forced transition at x/c =  1.0000   73

   1   rms: 0.4934E-01   max: 0.1032E+01   C at   17  1
       a =  6.700      CL =  1.0888
      Cm = -0.0731     CD =  0.01254   =>   CDf =  0.00664    CDp =  0.00590

 Side 1  free  transition at x/c =  0.0133   16
 Side 2 forced transition at x/c =  1.0000   73

   2   rms: 0.3697E-02   max: 0.1447E-01   D at   19  1
       a =  6.700      CL =  1.0897
      Cm = -0.0732     CD =  0.01243   =>   CDf =  0.00665    CDp =  0.00578

 Side 1  free  transition at x/c =  0.0133   16
 Side 2 forced transition at x/c =  1.0000   73

   3   rms: 0.5534E-04   max: 0.1208E-02   C at   16  1
       a =  6.700      CL =  1.0897
      Cm = -0.0732     CD =  0.01243   =>   CDf =  0.00665    CDp =  0.00578

 Point added to stored polar  1
 Point written to save file  polar_tmp.dat                                   
 Dump file unspecified or not available
 Calculating wake trajectory ...
 Calculating source influence matrix ...

 Solving BL system ...

 Side 1  free  transition at x/c =  0.0133   16
 Side 2 forced transition at x/c =  1.0000   73

   1   rms: 0.2328E-01   max: 0.3630E+00   C at   16  1
       a =  6.800      CL =  1.0992
      Cm = -0.0730     CD =  0.01261   =>   CDf =  0.00665    CDp =  0.00596

 Side 1  free  transition at x/c =  0.0124   16
 Side 2 forced transition at x/c =  1.0000   73

   2   rms: 0.2961E-03   max: 0.1067E-02   D at   18  1
       a =  6.800      CL =  1.0992
      Cm = -0.0730     CD =  0.01260   =>   CDf =  0.00665    CDp =  0.00595

 Side 1  free  transition at x/c =  0.0124   16
 Side 2 forced transition at x/c =  1.0000   73

   3   rms: 0.1160E-05   max: 0.1467E-04   C at   16  1
       a =  6.800      CL =  1.0992
      Cm = -0.0730     CD =  0.01260   =>   CDf =  0.00665    CDp =  0.00595

 Point added to stored polar  1
 Point written to save file  polar_tmp.dat                                   
 Dump file unspecified or not available
 Calculating wake trajectory ...
 Calculating source influence matrix ...

 Solving BL system ...

 Side 1  free  transition at x/c =  0.0124   16
 Side 2 forced transition at x/c =  1.0000   73

   1   rms: 0.1958E-01   max: 0.1443E+00   C at   16  1
       a =  6.900      CL =  1.1086
      Cm = -0.0728     CD =  0.01278   =>   CDf =  0.00665    CDp =  0.00613

 Side 1  free  transition at x/c =  0.0117   16
 Side 2 forced transition at x/c =  1.0000   73

   2   rms: 0.4096E-03   max: -.5936E-02   D at   16  1
       a =  6.900      CL =  1.1086
      Cm = -0.0728     CD =  0.01277   =>   CDf =  0.00664    CDp =  0.00613

 Side 1  free  transition at x/c =  0.0116   16
 Side 2 forced transition at x/c =  1.0000   73

   3   rms: 0.3865E-05   max: 0.4218E-04   D at   15  1
       a =  6.900      CL =  1.1086
      Cm = -0.0728     CD =  0.01277   =>   CDf =  0.00664    CDp =  0.00613

 Point added to stored polar  1
 Point written to save file  polar_tmp.dat                                   
 Dump file unspecified or not available
 Calculating wake trajectory ...
 Calculating source influence matrix ...

 Solving BL system ...

 Side 1  free  transition at x/c =  0.0116   16
 Side 2 forced transition at x/c =  1.0000   73

   1   rms: 0.1903E-01   max: 0.9160E-01   C at   16  1
       a =  7.000      CL =  1.1180
      Cm = -0.0725     CD =  0.01296   =>   CDf =  0.00664    CDp =  0.00632

 Side 1  free  transition at x/c =  0.0110   16
 Side 2 forced transition at x/c =  1.0000   73

   2   rms: 0.6109E-03   max: -.9291E-02   D at   16  1
       a =  7.000      CL =  1.1180
      Cm = -0.0725     CD =  0.01296   =>   CDf =  0.00662    CDp =  0.00633

 Side 1  free  transition at x/c =  0.0110   16
 Side 2 forced transition at x/c =  1.0000   73

   3   rms: 0.3330E-05   max: 0.3490E-04   D at   15  1
       a =  7.000      CL =  1.1180
      Cm = -0.0725     CD =  0.01296   =>   CDf =  0.00663    CDp =  0.00633

 Point added to stored polar  1
 Point written to save file  polar_tmp.dat                                   
 Dump file unspecified or not available
 Calculating wake trajectory ...
 Calculating source influence matrix ...

 Solving BL system ...

 Side 1  free  transition at x/c =  0.0110   16
 Side 2 forced transition at x/c =  1.0000   73

   1   rms: 0.1851E-01   max: 0.6748E-01   C at   16  1
       a =  7.100      CL =  1.1273
      Cm = -0.0722     CD =  0.01315   =>   CDf =  0.00663    CDp =  0.00652

 Side 1  free  transition at x/c =  0.0105   16
 Side 2 forced transition at x/c =  1.0000   73

   2   rms: 0.3249E-03   max: -.4510E-02   D at   16  1
       a =  7.100      CL =  1.1272
      Cm = -0.0722     CD =  0.01315   =>   CDf =  0.00660    CDp =  0.00655

 Side 1  free  transition at x/c =  0.0105   16
 Side 2 forced transition at x/c =  1.0000   73

   3   rms: 0.1138E-05   max: 0.4419E-05   D at   12  1
       a =  7.100      CL =  1.1272
      Cm = -0.0722     CD =  0.01315   =>   CDf =  0.00660    CDp =  0.00655

 Point added to stored polar  1
 Point written to save file  polar_tmp.dat                                   
 Dump file unspecified or not available
 Calculating wake trajectory ...
 Calculating source influence matrix ...

 Solving BL system ...

 Side 1  free  transition at x/c =  0.0105   16
 Side 2 forced transition at x/c =  1.0000   73

   1   rms: 0.1901E-01   max: 0.7724E-01   D at   16  1
       a =  7.200      CL =  1.1364
      Cm = -0.0719     CD =  0.01336   =>   CDf =  0.00660    CDp =  0.00676

 Side 1  free  transition at x/c =  0.0102   15
 Side 2 forced transition at x/c =  1.0000   73

   2   rms: 0.5486E-02   max: -.8101E-01   D at   15  1
       a =  7.200      CL =  1.1365
      Cm = -0.0720     CD =  0.01333   =>   CDf =  0.00657    CDp =  0.00676

 Side 1  free  transition at x/c =  0.0102   15
 Side 2 forced transition at x/c =  1.0000   73

   3   rms: 0.6153E-04   max: 0.1104E-02   D at   15  1
       a =  7.200      CL =  1.1365
      Cm = -0.0720     CD =  0.01333   =>   CDf =  0.00658    CDp =  0.00675

 Point added to stored polar  1
 Point written to save file  polar_tmp.dat                                   
 Dump file unspecified or not available
 Calculating wake trajectory ...
 Calculating source influence matrix ...

 Solving BL system ...

 Side 1  free  transition at x/c =  0.0102   15
 Side 2 forced transition at x/c =  1.0000   73

   1   rms: 0.1760E-01   max: 0.8527E-01   T at   15  1
       a =  7.300      CL =  1.1459
      Cm = -0.0717     CD =  0.01350   =>   CDf =  0.00658    CDp =  0.00692

 Side 1  free  transition at x/c =  0.0100   15
 Side 2 forced transition at x/c =  1.0000   73

   2   rms: 0.2575E-03   max: 0.3495E-02   D at   15  1
       a =  7.300      CL =  1.1458
      Cm = -0.0717     CD =  0.01351   =>   CDf =  0.00656    CDp =  0.00694

 Side 1  free  transition at x/c =  0.0100   15
 Side 2 forced transition at x/c =  1.0000   73

   3   rms: 0.2088E-05   max: 0.7572E-05   C at   22  1
       a =  7.300      CL =  1.1458
      Cm = -0.0717     CD =  0.01351   =>   CDf =  0.00656    CDp =  0.00694

 Point added to stored polar  1
 Point written to save file  polar_tmp.dat                                   
 Dump file unspecified or not available
 Calculating wake trajectory ...
 Calculating source influence matrix ...

 Solving BL system ...

 Side 1  free  transition at x/c =  0.0100   15
 Side 2 forced transition at x/c =  1.0000   73

   1   rms: 0.1695E-01   max: 0.1844E-01   D at   79  2
       a =  7.400      CL =  1.1552
      Cm = -0.0715     CD =  0.01368   =>   CDf =  0.00629    CDp =  0.00739

 Side 1  free  transition at x/c =  0.0099   16
 Side 2 forced transition at x/c =  1.0000   72

   2   rms: 0.2885E-02   max: -.5069E-01   T at    2  1
       a =  7.400      CL =  1.1551
      Cm = -0.0715     CD =  0.01368   =>   CDf =  0.00653    CDp =  0.00714

 Side 1  free  transition at x/c =  0.0099   16
 Side 2 forced transition at x/c =  1.0000   72

   3   rms: 0.7253E-03   max: -.8334E-02   D at    4  1
       a =  7.400      CL =  1.1551
      Cm = -0.0714     CD =  0.01368   =>   CDf =  0.00653    CDp =  0.00715

 Side 1  free  transition at x/c =  0.0099   16
 Side 2 forced transition at x/c =  1.0000   72

   4   rms: 0.8046E-06   max: 0.5098E-05   D at   10  1
       a =  7.400      CL =  1.1551
      Cm = -0.0715     CD =  0.01368   =>   CDf =  0.00653    CDp =  0.00714

 Point added to stored polar  1
 Point written to save file  polar_tmp.dat                                   
 Dump file unspecified or not available
 Calculating wake trajectory ...
 Calculating source influence matrix ...

 Solving BL system ...

 Side 1  free  transition at x/c =  0.0099   16
 Side 2 forced transition at x/c =  1.0000   72

   1   rms: 0.1743E-01   max: 0.6906E-01   T at   16  1
       a =  7.500      CL =  1.1643
      Cm = -0.0712     CD =  0.01387   =>   CDf =  0.00653    CDp =  0.00734

 Side 1  free  transition at x/c =  0.0097   16
 Side 2 forced transition at x/c =  1.0000   72

   2   rms: 0.3835E-03   max: 0.6072E-02   D at   16  1
       a =  7.500      CL =  1.1642
      Cm = -0.0712     CD =  0.01387   =>   CDf =  0.00651    CDp =  0.00735

 Side 1  free  transition at x/c =  0.0097   16
 Side 2 forced transition at x/c =  1.0000   72

   3   rms: 0.1368E-05   max: 0.1042E-04   D at   16  1
       a =  7.500      CL =  1.1642
      Cm = -0.0712     CD =  0.01387   =>   CDf =  0.00651    CDp =  0.00735

 Point added to stored polar  1
 Point written to save file  polar_tmp.dat                                   
 Dump file unspecified or not available
 Calculating wake trajectory ...
 Calculating source influence matrix ...

 Solving BL system ...

 Side 1  free  transition at x/c =  0.0097   16
 Side 2 forced transition at x/c =  1.0000   72

   1   rms: 0.1697E-01   max: 0.5620E-01   T at   16  1
       a =  7.600      CL =  1.1733
      Cm = -0.0709     CD =  0.01405   =>   CDf =  0.00651    CDp =  0.00754

 Side 1  free  transition at x/c =  0.0095   16
 Side 2 forced transition at x/c =  1.0000   72

   2   rms: 0.1386E-02   max: 0.2117E-01   D at   16  1
       a =  7.600      CL =  1.1733
      Cm = -0.0709     CD =  0.01406   =>   CDf =  0.00649    CDp =  0.00756

 Side 1  free  transition at x/c =  0.0095   16
 Side 2 forced transition at x/c =  1.0000   72

   3   rms: 0.8252E-05   max: 0.9611E-04   D at   16  1
       a =  7.600      CL =  1.1733
      Cm = -0.0709     CD =  0.01405   =>   CDf =  0.00649    CDp =  0.00756

 Point added to stored polar  1
 Point written to save file  polar_tmp.dat                                   
 Dump file unspecified or not available
 Calculating wake trajectory ...
 Calculating source influence matrix ...

 Solving BL system ...

 Side 1  free  transition at x/c =  0.0095   16
 Side 2 forced transition at x/c =  1.0000   72

   1   rms: 0.1752E-01   max: 0.5307E-01   T at   16  1
       a =  7.700      CL =  1.1822
      Cm = -0.0706     CD =  0.01427   =>   CDf =  0.00649    CDp =  0.00778

 Side 1  free  transition at x/c =  0.0093   16
 Side 2 forced transition at x/c =  1.0000   72

   2   rms: 0.1176E-03   max: 0.1084E-02   D at   16  1
       a =  7.700      CL =  1.1821
      Cm = -0.0706     CD =  0.01426   =>   CDf =  0.00647    CDp =  0.00780

 Side 1  free  transition at x/c =  0.0093   16
 Side 2 forced transition at x/c =  1.0000   72

   3   rms: 0.6445E-06   max: 0.3345E-05   D at   89  1
       a =  7.700      CL =  1.1821
      Cm = -0.0706     CD =  0.01426   =>   CDf =  0.00647    CDp =  0.00780

 Point added to stored polar  1
 Point written to save file  polar_tmp.dat                                   
 Dump file unspecified or not available
 Calculating wake trajectory ...
 Calculating source influence matrix ...

 Solving BL system ...

 Side 1  free  transition at x/c =  0.0093   16
 Side 2 forced transition at x/c =  1.0000   72

   1   rms: 0.1724E-01   max: 0.2146E-01   D at   79  2
       a =  7.800      CL =  1.1909
      Cm = -0.0702     CD =  0.01448   =>   CDf =  0.00647    CDp =  0.00801

 Side 1  free  transition at x/c =  0.0092   16
 Side 2 forced transition at x/c =  1.0000   72

   2   rms: 0.1700E-03   max: -.9069E-03   D at   16  1
       a =  7.800      CL =  1.1908
      Cm = -0.0702     CD =  0.01448   =>   CDf =  0.00645    CDp =  0.00803

 Side 1  free  transition at x/c =  0.0092   16
 Side 2 forced transition at x/c =  1.0000   72

   3   rms: 0.1951E-05   max: -.5575E-05   C at   26  1
       a =  7.800      CL =  1.1908
      Cm = -0.0702     CD =  0.01448   =>   CDf =  0.00645    CDp =  0.00803

 Point added to stored polar  1
 Point written to save file  polar_tmp.dat                                   
 Dump file unspecified or not available
 Calculating wake trajectory ...
 Calculating source influence matrix ...

 Solving BL system ...

 Side 1  free  transition at x/c =  0.0092   16
 Side 2 forced transition at x/c =  1.0000   72

   1   rms: 0.1713E-01   max: 0.2177E-01   D at   79  2
       a =  7.900      CL =  1.1996
      Cm = -0.0699     CD =  0.01470   =>   CDf =  0.00645    CDp =  0.00825

 Side 1  free  transition at x/c =  0.0091   16
 Side 2 forced transition at x/c =  1.0000   72

   2   rms: 0.1410E-03   max: -.7280E-03   D at   17  1
       a =  7.900      CL =  1.1995
      Cm = -0.0699     CD =  0.01469   =>   CDf =  0.00642    CDp =  0.00827

 Side 1  free  transition at x/c =  0.0091   16
 Side 2 forced transition at x/c =  1.0000   72

   3   rms: 0.1319E-05   max: 0.8110E-05   C at   72  2
       a =  7.900      CL =  1.1995
      Cm = -0.0699     CD =  0.01469   =>   CDf =  0.00642    CDp =  0.00827

 Point added to stored polar  1
 Point written to save file  polar_tmp.dat                                   
 Dump file unspecified or not available
 Calculating wake trajectory ...
 Calculating source influence matrix ...

 Solving BL system ...

 Side 1  free  transition at x/c =  0.0091   16
 Side 2 forced transition at x/c =  1.0000   72

   1   rms: 0.1712E-01   max: 0.2244E-01   D at   79  2
       a =  8.000      CL =  1.2081
      Cm = -0.0695     CD =  0.01492   =>   CDf =  0.00642    CDp =  0.00850

 Side 1  free  transition at x/c =  0.0090   16
 Side 2 forced transition at x/c =  1.0000   72

   2   rms: 0.1694E-03   max: -.9276E-03   D at   16  1
       a =  8.000      CL =  1.2080
      Cm = -0.0695     CD =  0.01492   =>   CDf =  0.00640    CDp =  0.00852

 Side 1  free  transition at x/c =  0.0090   16
 Side 2 forced transition at x/c =  1.0000   72

   3   rms: 0.1734E-05   max: -.5219E-05   C at   26  1
       a =  8.000      CL =  1.2080
      Cm = -0.0695     CD =  0.01492   =>   CDf =  0.00640    CDp =  0.00852

 Point added to stored polar  1
 Point written to save file  polar_tmp.dat                                   
 Dump file unspecified or not available
 Calculating wake trajectory ...
 Calculating source influence matrix ...

 Solving BL system ...

 Side 1  free  transition at x/c =  0.0090   16
 Side 2 forced transition at x/c =  1.0000   72

   1   rms: 0.1725E-01   max: 0.2328E-01   D at   79  2
       a =  8.100      CL =  1.2165
      Cm = -0.0691     CD =  0.01516   =>   CDf =  0.00640    CDp =  0.00876

 Side 1  free  transition at x/c =  0.0088   16
 Side 2 forced transition at x/c =  1.0000   72

   2   rms: 0.1963E-03   max: -.1170E-02   D at   16  1
       a =  8.100      CL =  1.2164
      Cm = -0.0691     CD =  0.01516   =>   CDf =  0.00637    CDp =  0.00878

 Side 1  free  transition at x/c =  0.0088   16
 Side 2 forced transition at x/c =  1.0000   72

   3   rms: 0.1762E-05   max: -.5479E-05   C at   28  1
       a =  8.100      CL =  1.2164
      Cm = -0.0691     CD =  0.01516   =>   CDf =  0.00637    CDp =  0.00878

 Point added to stored polar  1
 Point written to save file  polar_tmp.dat                                   
 Dump file unspecified or not available
 Calculating wake trajectory ...
 Calculating source influence matrix ...

 Solving BL system ...

 Side 1  free  transition at x/c =  0.0088   16
 Side 2 forced transition at x/c =  1.0000   72

   1   rms: 0.1696E-01   max: 0.2309E-01   D at   79  2
       a =  8.200      CL =  1.2248
      Cm = -0.0688     CD =  0.01540   =>   CDf =  0.00638    CDp =  0.00902

 Side 1  free  transition at x/c =  0.0088   16
 Side 2 forced transition at x/c =  1.0000   72

   2   rms: 0.1664E-03   max: -.8626E-03   D at   17  1
       a =  8.200      CL =  1.2246
      Cm = -0.0687     CD =  0.01539   =>   CDf =  0.00635    CDp =  0.00904

 Side 1  free  transition at x/c =  0.0088   16
 Side 2 forced transition at x/c =  1.0000   72

   3   rms: 0.1378E-05   max: 0.4258E-05   C at   72  2
       a =  8.200      CL =  1.2246
      Cm = -0.0687     CD =  0.01539   =>   CDf =  0.00635    CDp =  0.00904

 Point added to stored polar  1
 Point written to save file  polar_tmp.dat                                   
 Dump file unspecified or not available
 Calculating wake trajectory ...
 Calculating source influence matrix ...

 Solving BL system ...

 Side 1  free  transition at x/c =  0.0088   16
 Side 2 forced transition at x/c =  1.0000   72

   1   rms: 0.1740E-01   max: 0.2489E-01   D at   79  2
       a =  8.300      CL =  1.2328
      Cm = -0.0683     CD =  0.01566   =>   CDf =  0.00635    CDp =  0.00931

 Side 1  free  transition at x/c =  0.0086   16
 Side 2 forced transition at x/c =  1.0000   72

   2   rms: 0.1658E-03   max: -.6754E-03   T at   16  1
       a =  8.300      CL =  1.2326
      Cm = -0.0683     CD =  0.01565   =>   CDf =  0.00633    CDp =  0.00933

 Side 1  free  transition at x/c =  0.0086   16
 Side 2 forced transition at x/c =  1.0000   72

[...]

   7   rms: 0.7984E+01   max: -.1553E+03   C at  104  2   RLX: 0.003
       a = -4.300      CL =  0.0582
      Cm = -0.0780     CD =  0.00171   =>   CDf =  0.00266    CDp = -0.00095

 MRCHDU: Convergence failed at 105  side 2    Res =  0.6690E-02
 Side 1  free  transition at x/c =  0.7082   58
 Side 2  free  transition at x/c =  0.0109   13

   8   rms: 0.8673E+01   max: -.1684E+03   C at  104  2   RLX: 0.003
       a = -4.300      CL =  0.0578
      Cm = -0.0781     CD =  0.00158   =>   CDf =  0.00266    CDp = -0.00108

 MRCHDU: Convergence failed at 105  side 2    Res =  0.5713E-02
 Side 1  free  transition at x/c =  0.7083   58
 Side 2  free  transition at x/c =  0.0109   13

   9   rms: 0.9573E+01   max: -.1858E+03   C at  104  2   RLX: 0.003
       a = -4.300      CL =  0.0575
      Cm = -0.0782     CD =  0.00146   =>   CDf =  0.00266    CDp = -0.00120

 MRCHDU: Convergence failed at 105  side 2    Res =  0.4805E-02
 Side 1  free  transition at x/c =  0.7084   58
 Side 2  free  transition at x/c =  0.0109   13

  10   rms: 0.9608E+01   max: -.1863E+03   C at  104  2   RLX: 0.003
       a = -4.300      CL =  0.0571
      Cm = -0.0784     CD =  0.00135   =>   CDf =  0.00266    CDp = -0.00131

 MRCHDU: Convergence failed at 105  side 2    Res =  0.3985E-02
 Side 1  free  transition at x/c =  0.7085   58
 Side 2  free  transition at x/c =  0.0109   13

  11   rms: 0.1170E+02   max: -.2268E+03   C at  104  2   RLX: 0.002
       a = -4.300      CL =  0.0569
      Cm = -0.0785     CD =  0.00126   =>   CDf =  0.00266    CDp = -0.00140

 MRCHDU: Convergence failed at 105  side 2    Res =  0.3200E-02
 Side 1  free  transition at x/c =  0.7086   58
 Side 2  free  transition at x/c =  0.0109   13

  12   rms: 0.1160E+02   max: -.2247E+03   C at  104  2   RLX: 0.002
       a = -4.300      CL =  0.0566
      Cm = -0.0785     CD =  0.00117   =>   CDf =  0.00266    CDp = -0.00148

 MRCHDU: Convergence failed at 105  side 2    Res =  0.2504E-02
 Side 1  free  transition at x/c =  0.7087   58
 Side 2  free  transition at x/c =  0.0109   13

  13   rms: 0.1361E+02   max: -.2635E+03   C at  104  2   RLX: 0.002
       a = -4.300      CL =  0.0563
      Cm = -0.0786     CD =  0.00110   =>   CDf =  0.00266    CDp = -0.00155

 MRCHDU: Convergence failed at 105  side 2    Res =  0.1865E-02
 Side 1  free  transition at x/c =  0.7088   58
 Side 2  free  transition at x/c =  0.0109   13

  14   rms: 0.1467E+02   max: -.2838E+03   C at  104  2   RLX: 0.002
       a = -4.300      CL =  0.0561
      Cm = -0.0787     CD =  0.00104   =>   CDf =  0.00266    CDp = -0.00162

 MRCHDU: Convergence failed at 104  side 2    Res =  0.7123E-02
 MRCHDU: Convergence failed at 105  side 2    Res =  0.1496E-02
 Side 1  free  transition at x/c =  0.7089   58
 Side 2  free  transition at x/c =  0.0109   13

  15   rms: 0.1542E+02   max: -.2981E+03   C at  104  2   RLX: 0.002
       a = -4.300      CL =  0.0559
      Cm = -0.0788     CD =  0.00099   =>   CDf =  0.00266    CDp = -0.00167

 MRCHDU: Convergence failed at 104  side 2    Res =  0.5766E-01
 MRCHDU: Convergence failed at 105  side 2    Res =  0.2467E-02
 Side 1  free  transition at x/c =  0.7090   58
 Side 2  free  transition at x/c =  0.0109   13

  16   rms: 0.1698E+02   max: -.3282E+03   C at  104  2   RLX: 0.002
       a = -4.300      CL =  0.0557
      Cm = -0.0788     CD =  0.00094   =>   CDf =  0.00265    CDp = -0.00171

 MRCHDU: Convergence failed at 104  side 2    Res =  0.1082E+00
 Side 1  free  transition at x/c =  0.7090   58
 Side 2  free  transition at x/c =  0.0109   13

  17   rms: 0.2821E+02   max: -.3926E+03   C at  105  2   RLX: 0.001
       a = -4.300      CL =  0.0555
      Cm = -0.0789     CD =  0.00066   =>   CDf =  0.00265    CDp = -0.00199

 MRCHDU: Convergence failed at 104  side 2    Res =  0.4959E+00
 Side 1  free  transition at x/c =  0.7091   58
 Side 2  free  transition at x/c =  0.0109   13

  18   rms: 0.2975E+02   max: -.4140E+03   C at  105  2   RLX: 0.001
       a = -4.300      CL =  0.0554
      Cm = -0.0789     CD =  0.00066   =>   CDf =  0.00265    CDp = -0.00199

 MRCHDU: Convergence failed at 103  side 2    Res =  0.3449E-03
 MRCHDU: Convergence failed at 104  side 2    Res =  0.5450E+00
 Side 1  free  transition at x/c =  0.7091   58
 Side 2  free  transition at x/c =  0.0109   13

  19   rms: 0.3163E+02   max: -.4396E+03   C at  105  2   RLX: 0.001
       a = -4.300      CL =  0.0552
      Cm = -0.0790     CD =  0.00066   =>   CDf =  0.00265    CDp = -0.00200

 MRCHDU: Convergence failed at 103  side 2    Res =  0.4610E-01
 MRCHDU: Convergence failed at 104  side 2    Res =  0.5488E+00
 Side 1  free  transition at x/c =  0.7091   58
 Side 2  free  transition at x/c =  0.0109   13

  20   rms: 0.3377E+02   max: -.4688E+03   C at  105  2   RLX: 0.001
       a = -4.300      CL =  0.0551
      Cm = -0.0790     CD =  0.00066   =>   CDf =  0.00265    CDp = -0.00200

 MRCHDU: Convergence failed at 103  side 2    Res =  0.9196E-01
 MRCHDU: Convergence failed at 104  side 2    Res =  0.5525E+00
 Side 1  free  transition at x/c =  0.7092   58
 Side 2  free  transition at x/c =  0.0109   13

  21   rms: 0.3401E+02   max: -.4714E+03   C at  105  2   RLX: 0.001
       a = -4.300      CL =  0.0550
      Cm = -0.0791     CD =  0.00065   =>   CDf =  0.00265    CDp = -0.00200

 MRCHDU: Convergence failed at 103  side 2    Res =  0.1381E+00
 MRCHDU: Convergence failed at 104  side 2    Res =  0.6113E+00
 Side 1  free  transition at x/c =  0.7092   58
 Side 2  free  transition at x/c =  0.0109   13

  22   rms: 0.5990E+00   max: -.1580E+01   D at   25  2   RLX: 0.316
       a = -4.300      CL =  0.0102
      Cm = -0.0888     CD =  0.00101   =>   CDf =  0.00258    CDp = -0.00157

 Side 1  free  transition at x/c =  0.7182   57
 Side 2  free  transition at x/c =  0.0109   14

  23   rms: 0.4794E+00   max: -.1513E+01   D at   90  2   RLX: 0.330
       a = -4.300      CL = -0.0066
      Cm = -0.1038     CD =  0.00120   =>   CDf =  0.00333    CDp = -0.00214

 Side 1  free  transition at x/c =  0.7295   58
 Side 2  free  transition at x/c =  0.0109   14

  24   rms: 0.3138E+01   max: -.1434E+02   D at   94  2   RLX: 0.035
       a = -4.300      CL = -0.0317
      Cm = -0.1162     CD =  0.00005   =>   CDf =  0.00369    CDp = -0.00364

 Side 1  free  transition at x/c =  0.7356   59
 Side 2  free  transition at x/c =  0.0112   15

  25   rms: 0.2482E+01   max: -.2055E+02   D at   94  2   RLX: 0.024
       a = -4.300      CL = -0.0372
      Cm = -0.1256     CD =  0.00000   =>   CDf =  0.00415    CDp = -0.00414
 VISCAL:  Convergence failed
 Calculating wake trajectory ...
 Calculating source influence matrix ...

 Solving BL system ...

 MRCHDU: Convergence failed at  87  side 2    Res =  0.3642E-02
 Side 1  free  transition at x/c =  0.7429   59
 Side 2  free  transition at x/c =  0.0113   15

   1   rms: 0.1034E+02   max: 0.8468E+02   D at   94  2   RLX: 0.018
       a = -4.400      CL =  0.0021
      Cm = -0.1201     CD =  0.00009   =>   CDf =  0.00411    CDp = -0.00402

 Side 1  free  transition at x/c =  0.7226   58
 Side 2  free  transition at x/c =  0.0112   15

   2   rms: 0.1050E+01   max: -.7731E+01   D at   95  2   RLX: 0.065
       a = -4.400      CL = -0.0248
      Cm = -0.1188     CD =  0.00002   =>   CDf =  0.00406    CDp = -0.00404

 Side 1  free  transition at x/c =  0.7268   58
 Side 2  free  transition at x/c =  0.0113   15

   3   rms: 0.9550E+00   max: -.6602E+01   D at   88  2   RLX: 0.076
       a = -4.400      CL = -0.0464
      Cm = -0.1178     CD =  0.00004   =>   CDf =  0.00404    CDp = -0.00400

 MRCHDU: Convergence failed at  87  side 2    Res =  0.1185E-01
 Side 1  free  transition at x/c =  0.7278   58
 Side 2  free  transition at x/c =  0.0114   15

   4   rms: 0.8687E+00   max: -.5511E+01   D at   88  2   RLX: 0.091
       a = -4.400      CL = -0.0632
      Cm = -0.1168     CD =  0.00020   =>   CDf =  0.00400    CDp = -0.00380

 MRCHDU: Convergence failed at  87  side 2    Res =  0.1163E+00
 MRCHDU: Convergence failed at  88  side 2    Res =  0.8021E+01
 MRCHDU: Convergence failed at  89  side 2    Res =  0.1922E+01
 Side 1  free  transition at x/c =  0.7274   58
 Side 2  free  transition at x/c =  0.0118   15

   5   rms: 0.2129E+01   max: -.9578E+01   D at   95  2   RLX: 0.038
       a = -4.400      CL = -0.0911
      Cm = -0.1149     CD =  0.00162   =>   CDf =  0.00368    CDp = -0.00207

 MRCHDU: Convergence failed at  91  side 2    Res =  0.1040E+00
 MRCHDU: Convergence failed at  95  side 2    Res =  0.1693E+02
 Side 1  free  transition at x/c =  0.7230   57
 Side 2  free  transition at x/c =  0.0116   16

   6   rms: 0.4171E+01   max: 0.6077E+02   D at    2  2   RLX: 0.017
       a = -4.400      CL = -0.1093
      Cm = -0.1144     CD =  0.01092   =>   CDf =  0.00385    CDp =  0.00707

 Side 1  free  transition at x/c =  0.7225   57
 Side 2  free  transition at x/c =  0.0114   16

   7   rms: 0.7519E+00   max: -.5145E+01   T at   16  2   RLX: 0.097
       a = -4.400      CL = -0.1215
      Cm = -0.1121     CD =  0.01238   =>   CDf =  0.00386    CDp =  0.00852

 MRCHDU: Convergence failed at  92  side 2    Res =  0.4266E-01
 Side 1  free  transition at x/c =  0.7231   57
 Side 2  free  transition at x/c =  0.0122   16

   8   rms: 0.2834E+01   max: -.2680E+02   D at   93  2   RLX: 0.019
       a = -4.400      CL = -0.1581
      Cm = -0.1079     CD =  0.01848   =>   CDf =  0.00335    CDp =  0.01514

 MRCHDU: Convergence failed at  92  side 2    Res =  0.1785E+00
 MRCHDU: Convergence failed at  94  side 2    Res =  0.2756E+01
 MRCHDU: Convergence failed at  95  side 2    Res =  0.2699E+01
 Side 1  free  transition at x/c =  0.7244   57
 Side 2  free  transition at x/c =  0.0120   16

   9   rms: 0.1034E+01   max: -.5194E+01   D at   96  2   RLX: 0.096
       a = -4.400      CL = -0.1957
      Cm = -0.1058     CD =  0.04135   =>   CDf =  0.00342    CDp =  0.03793

 Side 1  free  transition at x/c =  0.7260   57
 Side 2  free  transition at x/c =  0.0116   16

  10   rms: 0.1037E+01   max: -.3024E+01   U at   96  2   RLX: 0.124
       a = -4.400      CL = -0.1899
      Cm = -0.0947     CD =  0.21304   =>   CDf =  0.00350    CDp =  0.20953

 Side 1  free  transition at x/c =  0.6994   55
 Side 2  free  transition at x/c =  0.0116   16

  11   rms: 0.1373E+01   max: 0.1123E+02   T at   16  2   RLX: 0.084
       a = -4.400      CL = -0.2452
      Cm = -0.0891     CD =  0.14443   =>   CDf =  0.00352    CDp =  0.14091

 MRCHDU: Convergence failed at  16  side 2    Res =  0.1383E+02
 MRCHDU: Convergence failed at  17  side 2    Res =  0.1075E+03
 MRCHDU: Convergence failed at  18  side 2    Res =  0.6635E+02
 MRCHDU: Convergence failed at  19  side 2    Res =  0.7013E+02
 MRCHDU: Convergence failed at  20  side 2    Res =  0.6546E+02
 MRCHDU: Convergence failed at  21  side 2    Res =  0.1009E+03
 MRCHDU: Convergence failed at  22  side 2    Res =  0.6149E+02
 MRCHDU: Convergence failed at  23  side 2    Res =  0.5251E+02
 MRCHDU: Convergence failed at  24  side 2    Res =  0.5736E+02
 MRCHDU: Convergence failed at  25  side 2    Res =  0.7549E+02
 MRCHDU: Convergence failed at  26  side 2    Res =  0.5710E+02
 MRCHDU: Convergence failed at  27  side 2    Res =  0.1037E+03
 MRCHDU: Convergence failed at  28  side 2    Res =  0.1011E+03
 MRCHDU: Convergence failed at  29  side 2    Res =  0.6146E+02
 MRCHDU: Convergence failed at  30  side 2    Res =  0.6151E+02
 MRCHDU: Convergence failed at  31  side 2    Res =  0.6351E+02
 MRCHDU: Convergence failed at  32  side 2    Res =  0.6555E+02
 MRCHDU: Convergence failed at  33  side 2    Res =  0.6316E+02
 MRCHDU: Convergence failed at  34  side 2    Res =  0.6515E+02
 MRCHDU: Convergence failed at  35  side 2    Res =  0.6776E+02
 MRCHDU: Convergence failed at  36  side 2    Res =  0.6904E+02
 MRCHDU: Convergence failed at  37  side 2    Res =  0.7060E+02
 MRCHDU: Convergence failed at  38  side 2    Res =  0.7154E+02
 MRCHDU: Convergence failed at  39  side 2    Res =  0.7119E+02
 MRCHDU: Convergence failed at  40  side 2    Res =  0.7141E+02
 MRCHDU: Convergence failed at  41  side 2    Res =  0.7043E+02
 MRCHDU: Convergence failed at  42  side 2    Res =  0.6857E+02
 MRCHDU: Convergence failed at  43  side 2    Res =  0.6431E+02
 MRCHDU: Convergence failed at  44  side 2    Res =  0.1387E+03
 MRCHDU: Convergence failed at  45  side 2    Res =  0.1953E+03
 MRCHDU: Convergence failed at  46  side 2    Res =  0.9172E+03
 MRCHDU: Convergence failed at  47  side 2    Res =  0.8115E+03
 MRCHDU: Convergence failed at  48  side 2    Res =  0.3855E+03
 MRCHDU: Convergence failed at  49  side 2    Res =  0.3479E+05
 MRCHDU: Convergence failed at  50  side 2    Res =  0.1720E+03
 MRCHDU: Convergence failed at  51  side 2    Res =  0.1749E+03
 MRCHDU: Convergence failed at  52  side 2    Res =  0.3057E+05
 MRCHDU: Convergence failed at  53  side 2    Res =  0.1724E+03
 MRCHDU: Convergence failed at  54  side 2    Res =  0.1701E+03
 MRCHDU: Convergence failed at  55  side 2    Res =  0.9492E+04
 MRCHDU: Convergence failed at  56  side 2    Res =  0.1646E+03
 MRCHDU: Convergence failed at  57  side 2    Res =  0.1529E+03
 MRCHDU: Convergence failed at  58  side 2    Res =  0.7233E+04
 MRCHDU: Convergence failed at  59  side 2    Res =  0.4385E+04
 MRCHDU: Convergence failed at  60  side 2    Res =  0.1809E+04
 MRCHDU: Convergence failed at  61  side 2    Res =  0.8761E+03
 MRCHDU: Convergence failed at  62  side 2    Res =  0.7706E+03
 MRCHDU: Convergence failed at  63  side 2    Res =  0.5986E+03
 MRCHDU: Convergence failed at  64  side 2    Res =  0.4893E+03
 MRCHDU: Convergence failed at  65  side 2    Res =  0.4246E+03
 MRCHDU: Convergence failed at  66  side 2    Res =  0.3948E+03
 MRCHDU: Convergence failed at  67  side 2    Res =  0.3479E+03
 MRCHDU: Convergence failed at  68  side 2    Res =  0.3172E+03
 MRCHDU: Convergence failed at  69  side 2    Res =  0.2868E+03
 MRCHDU: Convergence failed at  70  side 2    Res =  0.2320E+03
 MRCHDU: Convergence failed at  71  side 2    Res =  0.2481E+03
 MRCHDU: Convergence failed at  72  side 2    Res =  0.2554E+03
 MRCHDU: Convergence failed at  73  side 2    Res =  0.2608E+03
 MRCHDU: Convergence failed at  74  side 2    Res =  0.2707E+03
 MRCHDU: Convergence failed at  75  side 2    Res =  0.2870E+03
 MRCHDU: Convergence failed at  76  side 2    Res =  0.3083E+03
 MRCHDU: Convergence failed at  77  side 2    Res =  0.3350E+03
 MRCHDU: Convergence failed at  78  side 2    Res =  0.3364E+03
 MRCHDU: Convergence failed at  79  side 2    Res =  0.3520E+03
 MRCHDU: Convergence failed at  80  side 2    Res =  0.3340E+03
 MRCHDU: Convergence failed at  81  side 2    Res =  0.3401E+03
 MRCHDU: Convergence failed at  82  side 2    Res =  0.3209E+03
 MRCHDU: Convergence failed at  83  side 2    Res =  0.3092E+03
 MRCHDU: Convergence failed at  84  side 2    Res =  0.2903E+03
 MRCHDU: Convergence failed at  85  side 2    Res =  0.2587E+03
 MRCHDU: Convergence failed at  86  side 2    Res =  0.2311E+03
 MRCHDU: Convergence failed at  93  side 2    Res =  0.9283E-01
 Side 1  free  transition at x/c =  0.6977   55
 Side 2  free  transition at x/c =  0.0109   15

  12   rms: 0.2013E+01   max: 0.6871E+01   D at   93  2   RLX: 0.218
       a = -4.400      CL = -3.0760
      Cm =  0.7592     CD =  0.02533   =>   CDf =  0.00152    CDp =  0.02380

 Side 1  free  transition at x/c =  0.7019   55
 Side 2  free  transition at x/c =  0.0111   16

  13   rms: 0.4508E+01   max: 0.2182E+02   D at   97  2   RLX: 0.027
       a = -4.400      CL = -2.2850
      Cm =  0.5295     CD =  0.02958   =>   CDf =  0.00233    CDp =  0.02726

 MRCHDU: Convergence failed at  57  side 1    Res =  0.7478E+01
 Side 1  free  transition at x/c =  0.7398   58
 Side 2  free  transition at x/c =  0.0114   16

  14   rms: 0.1478E+01   max: -.9506E+01   C at   58  1   RLX: 0.053
       a = -4.400      CL = -2.2345
      Cm =  0.5025     CD =  0.01446   =>   CDf =  0.00239    CDp =  0.01207

 Side 1  free  transition at x/c =  0.7512   59
 Side 2  free  transition at x/c =  0.0114   16

  15   rms: 0.1306E+01   max: 0.5121E+01   D at   97  2   RLX: 0.158
       a = -4.400      CL = -1.8010
      Cm =  0.3956     CD =  0.00110   =>   CDf =  0.00261    CDp = -0.00151

 MRCHDU: Convergence failed at  96  side 2    Res =  0.1709E+01
 Side 1  free  transition at x/c =  0.7654   61
 Side 2  free  transition at x/c =  0.0119   15

  16   rms: 0.1369E+01   max: -.4762E+01   T at  103  2   RLX: 0.105
       a = -4.400      CL = -1.5187
      Cm =  0.3288     CD =  0.03045   =>   CDf =  0.00258    CDp =  0.02787

 Side 1  free  transition at x/c =  0.7558   60
 Side 2  free  transition at x/c =  0.0118   15

  17   rms: 0.1318E+01   max: -.6068E+01   T at  102  2   RLX: 0.082
       a = -4.400      CL = -1.3245
      Cm =  0.2865     CD =  0.06095   =>   CDf =  0.00259    CDp =  0.05836

 Side 1  free  transition at x/c =  0.7471   59
 Side 2  free  transition at x/c =  0.0121   15

  18   rms: 0.1261E+01   max: -.6146E+01   T at   15  2   RLX: 0.081
       a = -4.400      CL = -1.1625
Note: The following floating-point exceptions are signalling: IEEE_DIVIDE_BY_ZERO IEEE_UNDERFLOW_FLAG IEEE_DENORMAL
      Cm =  0.2512     CD =  0.03264   =>   CDf =  0.00267    CDp =  0.02997

 MRCHDU: Convergence failed at 101  side 2    Res =  0.5713E-01
 MRCHDU: Convergence failed at 102  side 2    Res =  0.1958E-01
 Side 1  free  transition at x/c =  0.7400   60
 Side 2  free  transition at x/c =  0.0131   14

  19   rms: 0.4414E+01   max: 0.5188E+02   T at  104  2   RLX: 0.019
       a = -4.400      CL = -1.1313
      Cm =  0.2441     CD =  0.13440   =>   CDf =  0.00259    CDp =  0.13182

 MRCHDU: Convergence failed at 101  side 2    Res =  0.6206E-01
 MRCHDU: Convergence failed at 102  side 2    Res =  0.6050E-01
 Side 1  free  transition at x/c =  0.7388   60
 Side 2  free  transition at x/c =  0.0127   14

  20   rms: 0.1854E+02   max: 0.2147E+03   T at  106  2   RLX: 0.007
       a = -4.400      CL = -1.1199
      Cm =  0.2410     CD =  0.37282   =>   CDf =  0.00250    CDp =  0.37032

 MRCHDU: Convergence failed at 102  side 2    Res =  0.4439E-01
 Side 1  free  transition at x/c =  0.7380   59
 Side 2  free  transition at x/c =  0.0117   15

  21   rms: 0.1230E+02   max: 0.1433E+03   C at  103  2   RLX: 0.005
       a = -4.400      CL = -1.1070
      Cm =  0.2390     CD =  0.20011   =>   CDf =  0.00265    CDp =  0.19746

 MRCHDU: Convergence failed at 101  side 2    Res =  0.3792E-01
 Side 1  free  transition at x/c =  0.7367   60
 Side 2  free  transition at x/c =  0.0117   14

  22   rms: 0.4004E+01   max: -.6242E+02   D at    2  1   RLX: 0.008
       a = -4.400      CL = -1.0935
      Cm =  0.2361     CD =  0.20729   =>   CDf =  0.00258    CDp =  0.20471

 MRCHDU: Convergence failed at 101  side 2    Res =  0.3001E-01
 Side 1  free  transition at x/c =  0.7360   60
 Side 2  free  transition at x/c =  0.0118   14

  23   rms: 0.1203E+01   max: 0.7250E+01   C at  102  2   RLX: 0.125
       a = -4.400      CL = -0.8879
      Cm =  0.1918     CD =  0.36235   =>   CDf =  0.00258    CDp =  0.35976

 Side 1  free  transition at x/c =  0.7261   59
 Side 2  free  transition at x/c =  0.0125   14

  24   rms: 0.7729E+00   max: 0.4696E+01   T at   14  2   RLX: 0.269
       a = -4.400      CL = -0.5485
      Cm =  0.1129     CD =  0.26410   =>   CDf =  0.00256    CDp =  0.26154

 MRCHDU: Convergence failed at 101  side 2    Res =  0.1436E-01
 Side 1  free  transition at x/c =  0.7123   58
 Side 2  free  transition at x/c =  0.0112   14

  25   rms: 0.1720E+01   max: 0.1058E+02   C at   85  2   RLX: 0.062
       a = -4.400      CL = -0.4604
      Cm =  0.0908     CD =  0.13128   =>   CDf =  0.00258    CDp =  0.12870
 VISCAL:  Convergence failed

 Sequence halted since previous  4 points did not converge
 Last-converged  alpha =  -4.000    CL =  -0.04770

.OPERva   c>  
 Polar accumulation disabled

.OPERv   c>  
 XFOIL   c>  