
 ===================================================
  XFOIL Version 6.97
  Copyright (C) 2000   Mark Drela, Harold Youngren

  This software comes with ABSOLUTELY NO WARRANTY,
    subject to the GNU General Public License.

  Caveat computor
 ===================================================

 File  xfoil.def  not found

   QUIT    Exit program

  .OPER    Direct operating point(s)
  .MDES    Complex mapping design routine
  .QDES    Surface speed design routine
  .GDES    Geometry design routine

   SAVE f  Write airfoil to labeled coordinate file
   PSAV f  Write airfoil to plain coordinate file
   ISAV f  Write airfoil to ISES coordinate file
   MSAV f  Write airfoil to MSES coordinate file
   REVE    Reverse written-airfoil node ordering
   DELI i  Change written-airfoil file delimiters

   LOAD f  Read buffer airfoil from coordinate file
   NACA i  Set NACA 4,5-digit airfoil and buffer airfoil
   INTE    Set buffer airfoil by interpolating two airfoils
   NORM    Buffer airfoil normalization toggle
   HALF    Halve the number of points in buffer airfoil
   XYCM rr Change CM reference location, currently  0.25000 0.00000

   BEND    Display structural properties of current airfoil

   PCOP    Set current-airfoil panel nodes directly from buffer airfoil points
   PANE    Set current-airfoil panel nodes ( 160 ) based on curvature
  .PPAR    Show/change paneling

  .PLOP    Plotting options

   WDEF f  Write  current-settings file
   RDEF f  Reread current-settings file
   NAME s  Specify new airfoil name
   NINC    Increment name version number

   Z       Zoom    | (available in all menus)
   U       Unzoom  | 

 XFOIL   c>   ...............................................

  G raphics-enable flag:        T
  S ize of plot object          10.00"
  A spect ratio of plot object   0.5500
  P age dimensions              11.00 x  8.50"
  M argins from page edges       0.00",  0.00"
  F ont size (relative)          0.0150
  W indow/screen size fraction   0.8000
  B lowup input method:        Cursor    
  O rientation of plot:        Landscape 
  C olor PostScript output?     F

      Option, Value   (or <Return>)    c>   ...............................................

  G raphics-enable flag:        F
  S ize of plot object          10.00"
  A spect ratio of plot object   0.5500
  P age dimensions              11.00 x  8.50"
  M argins from page edges       0.00",  0.00"
  F ont size (relative)          0.0150
  W indow/screen size fraction   0.8000
  B lowup input method:        Cursor    
  O rientation of plot:        Landscape 
  C olor PostScript output?     F

      Option, Value   (or <Return>)    c>  
 XFOIL   c>  
 Labeled airfoil file.  Name:  NACA 0015                                       

 Number of input coordinate points:  35
 Counterclockwise ordering
 Max thickness =     0.150040  at x =   0.300
 Max camber    =    -0.000000  at x =   0.025

  LE  x,y  =   0.00000   0.00000  |   Chord =   1.00000
  TE  x,y  =   1.00000   0.00000  |

 Current airfoil nodes set from buffer airfoil nodes (  35 )

 WARNING: Poor input coordinate distribution
          Excessive panel angle   55.7  at i =  18
          Repaneling with PANE and/or PPAR suggested
           (doing GDES,CADD before repaneling _may_
            improve excessively coarse LE spacing

 XFOIL   c>  
 Blunt trailing edge.  Gap =  0.00316

 Paneling parameters used...
   Number of panel nodes       160
   Panel bunching parameter    1.000
   TE/LE panel density ratio   0.150
   Refined-area/LE panel density ratio    0.200
   Top    side refined area x/c limits  1.000 1.000
   Bottom side refined area x/c limits  1.000 1.000

 XFOIL   c>  
.OPERi   c>  
.OPERi   c>  
 M  =    0.0000
 Re =  0.1000E+07

.OPERv   c>   Calculating unit vorticity distributions ...
 Calculating wake trajectory ...
 Calculating source influence matrix ...

 Solving BL system ...

 Initializing BL ...
    side            1  ...
 MRCHUE: Inverse mode at  49     Hk =   4.668
 MRCHUE: Inverse mode at  50     Hk =   5.862
 MRCHUE: Inverse mode at  51     Hk =   2.500
 MRCHUE: Inverse mode at  85     Hk =   2.500
    side            2  ...
 MRCHUE: Inverse mode at  57     Hk =   4.553
 MRCHUE: Inverse mode at  58     Hk =   5.465
 MRCHUE: Inverse mode at  59     Hk =   4.393
 MRCHUE: Inverse mode at  60     Hk =   2.500
 MRCHUE: Inverse mode at  77     Hk =   2.500

 Side 1  free  transition at x/c =  0.3954   50
 Side 2  free  transition at x/c =  0.6967   59

   1   rms: 0.1480E+00   max: -.9121E+00   D at   77  2   RLX: 0.548
       a =  2.000      CL =  0.2000
      Cm =  0.0057     CD =  0.00638   =>   CDf =  0.00555    CDp =  0.00083

 Side 1  free  transition at x/c =  0.4124   50
 Side 2  free  transition at x/c =  0.7172   61

   2   rms: 0.7475E-01   max: -.8840E+00   C at   61  2   RLX: 0.566
       a =  2.000      CL =  0.1952
      Cm =  0.0070     CD =  0.00642   =>   CDf =  0.00532    CDp =  0.00110

 Side 1  free  transition at x/c =  0.4345   52
 Side 2  free  transition at x/c =  0.7348   62

   3   rms: 0.4902E-01   max: -.4441E+00   C at   52  1
       a =  2.000      CL =  0.2158
      Cm =  0.0025     CD =  0.00655   =>   CDf =  0.00513    CDp =  0.00142

 Side 1  free  transition at x/c =  0.4501   53
 Side 2  free  transition at x/c =  0.7730   64

   4   rms: 0.2224E-01   max: -.3468E+00   C at   64  2
       a =  2.000      CL =  0.2176
      Cm =  0.0021     CD =  0.00650   =>   CDf =  0.00492    CDp =  0.00159

 Side 1  free  transition at x/c =  0.4563   53
 Side 2  free  transition at x/c =  0.7614   64

   5   rms: 0.6458E-02   max: 0.1128E+00   C at   53  1
       a =  2.000      CL =  0.2178
      Cm =  0.0020     CD =  0.00656   =>   CDf =  0.00485    CDp =  0.00170

 Side 1  free  transition at x/c =  0.4532   53
 Side 2  free  transition at x/c =  0.7626   64

   6   rms: 0.1858E-03   max: -.2362E-02   D at   65  2
       a =  2.000      CL =  0.2178
      Cm =  0.0020     CD =  0.00656   =>   CDf =  0.00486    CDp =  0.00170

 Side 1  free  transition at x/c =  0.4533   53
 Side 2  free  transition at x/c =  0.7626   64

   7   rms: 0.1055E-05   max: 0.1102E-04   C at   64  2
       a =  2.000      CL =  0.2178
      Cm =  0.0020     CD =  0.00656   =>   CDf =  0.00486    CDp =  0.00170

.OPERv   c>  
 Solving BL system ...

 Side 1  free  transition at x/c =  0.4533   53
 Side 2  free  transition at x/c =  0.7626   64

   1   rms: 0.9384E-06   max: 0.1364E-04   C at   64  2
       a =  2.000      CL =  0.2178
      Cm =  0.0020     CD =  0.00656   =>   CDf =  0.00486    CDp =  0.00170

.OPERv   c>  
 Polar  1 newly created for accumulation
 Airfoil archived with polar: NACA 0015                                       

Enter  polar save filename  OR  <return> for no file   s>  
 New polar save file available

Enter  polar dump filename  OR  <return> for no file   s>  
 Polar dump file will NOT be written

 Polar accumulation enabled

.OPERva   c>  
 Solving BL system ...

 Side 1  free  transition at x/c =  0.4533   53
 Side 2  free  transition at x/c =  0.7626   64

   1   rms: 0.1256E-05   max: 0.2012E-04   C at   53  1
       a =  2.000      CL =  0.2178
      Cm =  0.0020     CD =  0.00656   =>   CDf =  0.00486    CDp =  0.00170

 Point added to stored polar  1
 Point written to save file  polar_tmp.dat                                   
 Dump file unspecified or not available

.OPERva   c>  
 Solving BL system ...

 Side 1  free  transition at x/c =  0.4533   53
 Side 2  free  transition at x/c =  0.7626   64

   1   rms: 0.8746E-06   max: 0.1287E-04   C at   64  2
       a =  2.000      CL =  0.2178
      Cm =  0.0020     CD =  0.00656   =>   CDf =  0.00486    CDp =  0.00170

 Point added to stored polar  1
 Point written to save file  polar_tmp.dat                                   
 Dump file unspecified or not available

.OPERva   c>  
 Solving BL system ...

 Side 1  free  transition at x/c =  0.4533   53
 Side 2  free  transition at x/c =  0.7626   64

   1   rms: 0.1123E-05   max: -.1886E-04   C at   53  1
       a =  2.000      CL =  0.2178
      Cm =  0.0020     CD =  0.00656   =>   CDf =  0.00486    CDp =  0.00170

 Point added to stored polar  1
 Point written to save file  polar_tmp.dat                                   
 Dump file unspecified or not available
 Calculating wake trajectory ...
 Calculating source influence matrix ...

 Solving BL system ...

 Side 1  free  transition at x/c =  0.4533   53
 Side 2  free  transition at x/c =  0.7626   64

   1   rms: 0.5350E-01   max: 0.5240E+00   C at   53  1
       a =  2.250      CL =  0.2443
      Cm =  0.0024     CD =  0.00665   =>   CDf =  0.00482    CDp =  0.00183

 Side 1  free  transition at x/c =  0.4324   53
 Side 2  free  transition at x/c =  0.7745   63

   2   rms: 0.1099E-01   max: -.1871E+00   C at   63  2
       a =  2.250      CL =  0.2453
      Cm =  0.0022     CD =  0.00666   =>   CDf =  0.00495    CDp =  0.00172

 Side 1  free  transition at x/c =  0.4339   53
 Side 2  free  transition at x/c =  0.7823   64

   3   rms: 0.2477E-02   max: 0.4160E-01   C at   64  2
       a =  2.250      CL =  0.2448
      Cm =  0.0023     CD =  0.00663   =>   CDf =  0.00486    CDp =  0.00177

 Side 1  free  transition at x/c =  0.4336   53
 Side 2  free  transition at x/c =  0.7807   64

   4   rms: 0.3490E-04   max: -.7533E-03   D at   65  2
       a =  2.250      CL =  0.2448
      Cm =  0.0023     CD =  0.00663   =>   CDf =  0.00487    CDp =  0.00176

 Point added to stored polar  1
 Point written to save file  polar_tmp.dat                                   
 Dump file unspecified or not available
 Calculating wake trajectory ...
 Calculating source influence matrix ...

 Solving BL system ...

 Side 1  free  transition at x/c =  0.4336   53
 Side 2  free  transition at x/c =  0.7807   64

   1   rms: 0.5357E-01   max: 0.4693E+00   C at   53  1
       a =  2.500      CL =  0.2711
      Cm =  0.0027     CD =  0.00675   =>   CDf =  0.00487    CDp =  0.00188

 Side 1  free  transition at x/c =  0.4134   51
 Side 2  free  transition at x/c =  0.7921   64

   2   rms: 0.1236E-01   max: -.1916E+00   C at   64  2
       a =  2.500      CL =  0.2722
      Cm =  0.0025     CD =  0.00675   =>   CDf =  0.00496    CDp =  0.00180

 Side 1  free  transition at x/c =  0.4135   52
 Side 2  free  transition at x/c =  0.8001   65

   3   rms: 0.4162E-02   max: 0.4340E-01   C at   65  2
       a =  2.500      CL =  0.2719
      Cm =  0.0026     CD =  0.00671   =>   CDf =  0.00489    CDp =  0.00182

 Side 1  free  transition at x/c =  0.4147   52
 Side 2  free  transition at x/c =  0.7984   65

   4   rms: 0.3819E-03   max: 0.5209E-02   C at   52  1
       a =  2.500      CL =  0.2719
      Cm =  0.0026     CD =  0.00672   =>   CDf =  0.00488    CDp =  0.00183

 Side 1  free  transition at x/c =  0.4145   52
 Side 2  free  transition at x/c =  0.7984   65

   5   rms: 0.3708E-05   max: -.4539E-04   D at   52  1
       a =  2.500      CL =  0.2719
      Cm =  0.0026     CD =  0.00672   =>   CDf =  0.00488    CDp =  0.00183

 Point added to stored polar  1
 Point written to save file  polar_tmp.dat                                   
 Dump file unspecified or not available
 Calculating wake trajectory ...
 Calculating source influence matrix ...

 Solving BL system ...

 Side 1  free  transition at x/c =  0.4145   52
 Side 2  free  transition at x/c =  0.7984   65

   1   rms: 0.5220E-01   max: -.3891E+00   C at   65  2
       a =  2.750      CL =  0.2980
      Cm =  0.0031     CD =  0.00685   =>   CDf =  0.00488    CDp =  0.00197

 Side 1  free  transition at x/c =  0.3949   50
 Side 2  free  transition at x/c =  0.8102   65

   2   rms: 0.1474E-01   max: -.1761E+00   C at   65  2
       a =  2.750      CL =  0.2992
      Cm =  0.0028     CD =  0.00683   =>   CDf =  0.00491    CDp =  0.00193

 Side 1  free  transition at x/c =  0.3954   51
 Side 2  free  transition at x/c =  0.8168   65

   3   rms: 0.4431E-02   max: -.8384E-01   C at   51  1
       a =  2.750      CL =  0.2988
      Cm =  0.0029     CD =  0.00681   =>   CDf =  0.00490    CDp =  0.00191

 Side 1  free  transition at x/c =  0.3952   51
 Side 2  free  transition at x/c =  0.8157   65

   4   rms: 0.4049E-02   max: -.9221E-01   C at   51  1
       a =  2.750      CL =  0.2988
      Cm =  0.0029     CD =  0.00681   =>   CDf =  0.00490    CDp =  0.00191

 Side 1  free  transition at x/c =  0.3953   51
 Side 2  free  transition at x/c =  0.8157   65

   5   rms: 0.4015E-02   max: -.9172E-01   C at   51  1
       a =  2.750      CL =  0.2988
      Cm =  0.0029     CD =  0.00681   =>   CDf =  0.00490    CDp =  0.00191

 Side 1  free  transition at x/c =  0.3953   51
 Side 2  free  transition at x/c =  0.8157   65

   6   rms: 0.4016E-02   max: -.9176E-01   C at   51  1
       a =  2.750      CL =  0.2988
      Cm =  0.0029     CD =  0.00681   =>   CDf =  0.00490    CDp =  0.00191

 Side 1  free  transition at x/c =  0.3953   51
 Side 2  free  transition at x/c =  0.8157   65

   7   rms: 0.4016E-02   max: -.9176E-01   C at   51  1
       a =  2.750      CL =  0.2988
      Cm =  0.0029     CD =  0.00681   =>   CDf =  0.00490    CDp =  0.00191

 Side 1  free  transition at x/c =  0.3953   51
 Side 2  free  transition at x/c =  0.8157   65

   8   rms: 0.4016E-02   max: -.9176E-01   C at   51  1
       a =  2.750      CL =  0.2988
      Cm =  0.0029     CD =  0.00681   =>   CDf =  0.00490    CDp =  0.00191

 Side 1  free  transition at x/c =  0.3953   51
 Side 2  free  transition at x/c =  0.8157   65

   9   rms: 0.4016E-02   max: -.9176E-01   C at   51  1
       a =  2.750      CL =  0.2988
      Cm =  0.0029     CD =  0.00681   =>   CDf =  0.00490    CDp =  0.00191

 Side 1  free  transition at x/c =  0.3953   51
 Side 2  free  transition at x/c =  0.8157   65

  10   rms: 0.4016E-02   max: -.9175E-01   C at   51  1
       a =  2.750      CL =  0.2988
      Cm =  0.0029     CD =  0.00681   =>   CDf =  0.00490    CDp =  0.00191

 Side 1  free  transition at x/c =  0.3953   51
 Side 2  free  transition at x/c =  0.8157   65

  11   rms: 0.4016E-02   max: -.9175E-01   C at   51  1
       a =  2.750      CL =  0.2988
      Cm =  0.0029     CD =  0.00681   =>   CDf =  0.00490    CDp =  0.00191

 Side 1  free  transition at x/c =  0.3953   51
 Side 2  free  transition at x/c =  0.8157   65

  12   rms: 0.4016E-02   max: -.9175E-01   C at   51  1
       a =  2.750      CL =  0.2988
      Cm =  0.0029     CD =  0.00681   =>   CDf =  0.00490    CDp =  0.00191

 Side 1  free  transition at x/c =  0.3953   51
 Side 2  free  transition at x/c =  0.8157   65

  13   rms: 0.4016E-02   max: -.9176E-01   C at   51  1
       a =  2.750      CL =  0.2988
      Cm =  0.0029     CD =  0.00681   =>   CDf =  0.00490    CDp =  0.00191

 Side 1  free  transition at x/c =  0.3953   51
 Side 2  free  transition at x/c =  0.8157   65

  14   rms: 0.4016E-02   max: -.9176E-01   C at   51  1
       a =  2.750      CL =  0.2988
      Cm =  0.0029     CD =  0.00681   =>   CDf =  0.00490    CDp =  0.00191

 Side 1  free  transition at x/c =  0.3953   51
 Side 2  free  transition at x/c =  0.8157   65

  15   rms: 0.4016E-02   max: -.9176E-01   C at   51  1
       a =  2.750      CL =  0.2988
      Cm =  0.0029     CD =  0.00681   =>   CDf =  0.00490    CDp =  0.00191

 Side 1  free  transition at x/c =  0.3953   51
 Side 2  free  transition at x/c =  0.8157   65

  16   rms: 0.4016E-02   max: -.9176E-01   C at   51  1
       a =  2.750      CL =  0.2988
      Cm =  0.0029     CD =  0.00681   =>   CDf =  0.00490    CDp =  0.00191

 Side 1  free  transition at x/c =  0.3953   51
 Side 2  free  transition at x/c =  0.8157   65

  17   rms: 0.4017E-02   max: -.9176E-01   C at   51  1
       a =  2.750      CL =  0.2988
      Cm =  0.0029     CD =  0.00681   =>   CDf =  0.00490    CDp =  0.00191

 Side 1  free  transition at x/c =  0.3953   51
 Side 2  free  transition at x/c =  0.8157   65

  18   rms: 0.4017E-02   max: -.9176E-01   C at   51  1
       a =  2.750      CL =  0.2988
      Cm =  0.0029     CD =  0.00681   =>   CDf =  0.00490    CDp =  0.00191

 Side 1  free  transition at x/c =  0.3953   51
 Side 2  free  transition at x/c =  0.8157   65

  19   rms: 0.4016E-02   max: -.9176E-01   C at   51  1
       a =  2.750      CL =  0.2988
      Cm =  0.0029     CD =  0.00681   =>   CDf =  0.00490    CDp =  0.00191

 Side 1  free  transition at x/c =  0.3953   51
 Side 2  free  transition at x/c =  0.8157   65

  20   rms: 0.4016E-02   max: -.9175E-01   C at   51  1
       a =  2.750      CL =  0.2988
      Cm =  0.0029     CD =  0.00681   =>   CDf =  0.00490    CDp =  0.00191

 Side 1  free  transition at x/c =  0.3953   51
 Side 2  free  transition at x/c =  0.8157   65

  21   rms: 0.4016E-02   max: -.9176E-01   C at   51  1
       a =  2.750      CL =  0.2988
      Cm =  0.0029     CD =  0.00681   =>   CDf =  0.00490    CDp =  0.00191

 Side 1  free  transition at x/c =  0.3953   51
 Side 2  free  transition at x/c =  0.8157   65

  22   rms: 0.4016E-02   max: -.9176E-01   C at   51  1
       a =  2.750      CL =  0.2988
      Cm =  0.0029     CD =  0.00681   =>   CDf =  0.00490    CDp =  0.00191

 Side 1  free  transition at x/c =  0.3953   51
 Side 2  free  transition at x/c =  0.8157   65

  23   rms: 0.4016E-02   max: -.9175E-01   C at   51  1
       a =  2.750      CL =  0.2988
      Cm =  0.0029     CD =  0.00681   =>   CDf =  0.00490    CDp =  0.00191

 Side 1  free  transition at x/c =  0.3953   51
 Side 2  free  transition at x/c =  0.8157   65

  24   rms: 0.4016E-02   max: -.9176E-01   C at   51  1
       a =  2.750      CL =  0.2988
      Cm =  0.0029     CD =  0.00681   =>   CDf =  0.00490    CDp =  0.00191

 Side 1  free  transition at x/c =  0.3953   51
 Side 2  free  transition at x/c =  0.8157   65

  25   rms: 0.4016E-02   max: -.9176E-01   C at   51  1
       a =  2.750      CL =  0.2988
      Cm =  0.0029     CD =  0.00681   =>   CDf =  0.00490    CDp =  0.00191

 Side 1  free  transition at x/c =  0.3953   51
 Side 2  free  transition at x/c =  0.8157   65

  26   rms: 0.4016E-02   max: -.9176E-01   C at   51  1
       a =  2.750      CL =  0.2988
      Cm =  0.0029     CD =  0.00681   =>   CDf =  0.00490    CDp =  0.00191

 Side 1  free  transition at x/c =  0.3953   51
 Side 2  free  transition at x/c =  0.8157   65

  27   rms: 0.4017E-02   max: -.9176E-01   C at   51  1
       a =  2.750      CL =  0.2988
      Cm =  0.0029     CD =  0.00681   =>   CDf =  0.00490    CDp =  0.00191

 Side 1  free  transition at x/c =  0.3953   51
 Side 2  free  transition at x/c =  0.8157   65

  28   rms: 0.4016E-02   max: -.9176E-01   C at   51  1
       a =  2.750      CL =  0.2988
      Cm =  0.0029     CD =  0.00681   =>   CDf =  0.00490    CDp =  0.00191

 Side 1  free  transition at x/c =  0.3953   51
 Side 2  free  transition at x/c =  0.8157   65

  29   rms: 0.4016E-02   max: -.9176E-01   C at   51  1
       a =  2.750      CL =  0.2988
      Cm =  0.0029     CD =  0.00681   =>   CDf =  0.00490    CDp =  0.00191

 Side 1  free  transition at x/c =  0.3953   51
 Side 2  free  transition at x/c =  0.8157   65

  30   rms: 0.4016E-02   max: -.9175E-01   C at   51  1
       a =  2.750      CL =  0.2988
      Cm =  0.0029     CD =  0.00681   =>   CDf =  0.00490    CDp =  0.00191

 Side 1  free  transition at x/c =  0.3953   51
 Side 2  free  transition at x/c =  0.8157   65

  31   rms: 0.4016E-02   max: -.9175E-01   C at   51  1
       a =  2.750      CL =  0.2988
      Cm =  0.0029     CD =  0.00681   =>   CDf =  0.00490    CDp =  0.00191

 Side 1  free  transition at x/c =  0.3953   51
 Side 2  free  transition at x/c =  0.8157   65

  32   rms: 0.4016E-02   max: -.9176E-01   C at   51  1
       a =  2.750      CL =  0.2988
      Cm =  0.0029     CD =  0.00681   =>   CDf =  0.00490    CDp =  0.00191

 Side 1  free  transition at x/c =  0.3953   51
 Side 2  free  transition at x/c =  0.8157   65

  33   rms: 0.4016E-02   max: -.9176E-01   C at   51  1
       a =  2.750      CL =  0.2988
      Cm =  0.0029     CD =  0.00681   =>   CDf =  0.00490    CDp =  0.00191

 Side 1  free  transition at x/c =  0.3953   51
 Side 2  free  transition at x/c =  0.8157   65

  34   rms: 0.4017E-02   max: -.9176E-01   C at   51  1
       a =  2.750      CL =  0.2988
      Cm =  0.0029     CD =  0.00681   =>   CDf =  0.00490    CDp =  0.00191

 Side 1  free  transition at x/c =  0.3953   51
 Side 2  free  transition at x/c =  0.8157   65

  35   rms: 0.4016E-02   max: -.9176E-01   C at   51  1
       a =  2.750      CL =  0.2988
      Cm =  0.0029     CD =  0.00681   =>   CDf =  0.00490    CDp =  0.00191

 Side 1  free  transition at x/c =  0.3953   51
 Side 2  free  transition at x/c =  0.8157   65

  36   rms: 0.4016E-02   max: -.9176E-01   C at   51  1
       a =  2.750      CL =  0.2988
      Cm =  0.0029     CD =  0.00681   =>   CDf =  0.00490    CDp =  0.00191

 Side 1  free  transition at x/c =  0.3953   51
 Side 2  free  transition at x/c =  0.8157   65

  37   rms: 0.4016E-02   max: -.9176E-01   C at   51  1
       a =  2.750      CL =  0.2988
      Cm =  0.0029     CD =  0.00681   =>   CDf =  0.00490    CDp =  0.00191

 Side 1  free  transition at x/c =  0.3953   51
 Side 2  free  transition at x/c =  0.8157   65

  38   rms: 0.4016E-02   max: -.9176E-01   C at   51  1
       a =  2.750      CL =  0.2988
      Cm =  0.0029     CD =  0.00681   =>   CDf =  0.00490    CDp =  0.00191

 Side 1  free  transition at x/c =  0.3953   51
 Side 2  free  transition at x/c =  0.8157   65

  39   rms: 0.4016E-02   max: -.9175E-01   C at   51  1
       a =  2.750      CL =  0.2988
      Cm =  0.0029     CD =  0.00681   =>   CDf =  0.00490    CDp =  0.00191

 Side 1  free  transition at x/c =  0.3953   51
 Side 2  free  transition at x/c =  0.8157   65

  40   rms: 0.4016E-02   max: -.9175E-01   C at   51  1
       a =  2.750      CL =  0.2988
      Cm =  0.0029     CD =  0.00681   =>   CDf =  0.00490    CDp =  0.00191

 Side 1  free  transition at x/c =  0.3953   51
 Side 2  free  transition at x/c =  0.8157   65

  41   rms: 0.4016E-02   max: -.9176E-01   C at   51  1
       a =  2.750      CL =  0.2988
      Cm =  0.0029     CD =  0.00681   =>   CDf =  0.00490    CDp =  0.00191

 Side 1  free  transition at x/c =  0.3953   51
 Side 2  free  transition at x/c =  0.8157   65

  42   rms: 0.4016E-02   max: -.9176E-01   C at   51  1
       a =  2.750      CL =  0.2988
      Cm =  0.0029     CD =  0.00681   =>   CDf =  0.00490    CDp =  0.00191

 Side 1  free  transition at x/c =  0.3953   51
 Side 2  free  transition at x/c =  0.8157   65

  43   rms: 0.4016E-02   max: -.9175E-01   C at   51  1
       a =  2.750      CL =  0.2988
      Cm =  0.0029     CD =  0.00681   =>   CDf =  0.00490    CDp =  0.00191

 Side 1  free  transition at x/c =  0.3953   51
 Side 2  free  transition at x/c =  0.8157   65

  44   rms: 0.4016E-02   max: -.9176E-01   C at   51  1
       a =  2.750      CL =  0.2988
      Cm =  0.0029     CD =  0.00681   =>   CDf =  0.00490    CDp =  0.00191

 Side 1  free  transition at x/c =  0.3953   51
 Side 2  free  transition at x/c =  0.8157   65

  45   rms: 0.4016E-02   max: -.9175E-01   C at   51  1
       a =  2.750      CL =  0.2988
      Cm =  0.0029     CD =  0.00681   =>   CDf =  0.00490    CDp =  0.00191
 VISCAL:  Convergence failed
 Calculating wake trajectory ...
 Calculating source influence matrix ...

 Solving BL system ...

 Side 1  free  transition at x/c =  0.3953   51
 Side 2  free  transition at x/c =  0.8157   65

   1   rms: 0.4558E-01   max: -.3698E+00   C at   65  2
       a =  3.000      CL =  0.3264
      Cm =  0.0032     CD =  0.00680   =>   CDf =  0.00490    CDp =  0.00190

 Side 1  free  transition at x/c =  0.3757   50
 Side 2  free  transition at x/c =  0.8270   65

   2   rms: 0.1096E-01   max: -.1775E+00   C at   65  2
       a =  3.000      CL =  0.3262
      Cm =  0.0031     CD =  0.00692   =>   CDf =  0.00496    CDp =  0.00195

 Side 1  free  transition at x/c =  0.3776   50
 Side 2  free  transition at x/c =  0.8327   66

   3   rms: 0.3998E-02   max: -.8740E-01   C at   50  1
       a =  3.000      CL =  0.3259
      Cm =  0.0032     CD =  0.00690   =>   CDf =  0.00491    CDp =  0.00199

 Side 1  free  transition at x/c =  0.3776   50
 Side 2  free  transition at x/c =  0.8322   66

   4   rms: 0.3981E-02   max: -.9132E-01   C at   50  1
       a =  3.000      CL =  0.3259
      Cm =  0.0032     CD =  0.00690   =>   CDf =  0.00491    CDp =  0.00199

 Side 1  free  transition at x/c =  0.3776   50
 Side 2  free  transition at x/c =  0.8322   66

   5   rms: 0.3977E-02   max: -.9120E-01   C at   50  1
       a =  3.000      CL =  0.3259
      Cm =  0.0032     CD =  0.00690   =>   CDf =  0.00491    CDp =  0.00199

 Side 1  free  transition at x/c =  0.3776   50
 Side 2  free  transition at x/c =  0.8322   66

   6   rms: 0.3977E-02   max: -.9120E-01   C at   50  1
       a =  3.000      CL =  0.3259
      Cm =  0.0032     CD =  0.00690   =>   CDf =  0.00491    CDp =  0.00199

 Side 1  free  transition at x/c =  0.3776   50
 Side 2  free  transition at x/c =  0.8322   66

   7   rms: 0.3977E-02   max: -.9121E-01   C at   50  1
       a =  3.000      CL =  0.3259
      Cm =  0.0032     CD =  0.00690   =>   CDf =  0.00491    CDp =  0.00199

 Side 1  free  transition at x/c =  0.3776   50
 Side 2  free  transition at x/c =  0.8322   66

   8   rms: 0.3977E-02   max: -.9120E-01   C at   50  1
       a =  3.000      CL =  0.3259
      Cm =  0.0032     CD =  0.00690   =>   CDf =  0.00491    CDp =  0.00199

 Side 1  free  transition at x/c =  0.3776   50
 Side 2  free  transition at x/c =  0.8322   66

   9   rms: 0.3977E-02   max: -.9121E-01   C at   50  1
       a =  3.000      CL =  0.3259
      Cm =  0.0032     CD =  0.00690   =>   CDf =  0.00491    CDp =  0.00199

 Side 1  free  transition at x/c =  0.3776   50
 Side 2  free  transition at x/c =  0.8322   66

  10   rms: 0.3977E-02   max: -.9120E-01   C at   50  1
       a =  3.000      CL =  0.3259
      Cm =  0.0032     CD =  0.00690   =>   CDf =  0.00491    CDp =  0.00199

 Side 1  free  transition at x/c =  0.3776   50
 Side 2  free  transition at x/c =  0.8322   66

  11   rms: 0.3977E-02   max: -.9122E-01   C at   50  1
       a =  3.000      CL =  0.3259
      Cm =  0.0032     CD =  0.00690   =>   CDf =  0.00491    CDp =  0.00199

 Side 1  free  transition at x/c =  0.3776   50
 Side 2  free  transition at x/c =  0.8322   66

  12   rms: 0.3977E-02   max: -.9121E-01   C at   50  1
       a =  3.000      CL =  0.3259
      Cm =  0.0032     CD =  0.00690   =>   CDf =  0.00491    CDp =  0.00199

 Side 1  free  transition at x/c =  0.3776   50
 Side 2  free  transition at x/c =  0.8322   66

  13   rms: 0.3977E-02   max: -.9120E-01   C at   50  1
       a =  3.000      CL =  0.3259
      Cm =  0.0032     CD =  0.00690   =>   CDf =  0.00491    CDp =  0.00199

 Side 1  free  transition at x/c =  0.3776   50
 Side 2  free  transition at x/c =  0.8322   66

  14   rms: 0.3977E-02   max: -.9121E-01   C at   50  1
       a =  3.000      CL =  0.3259
      Cm =  0.0032     CD =  0.00690   =>   CDf =  0.00491    CDp =  0.00199

 Side 1  free  transition at x/c =  0.3776   50
 Side 2  free  transition at x/c =  0.8322   66

  15   rms: 0.3977E-02   max: -.9120E-01   C at   50  1
       a =  3.000      CL =  0.3259
      Cm =  0.0032     CD =  0.00690   =>   CDf =  0.00491    CDp =  0.00199

 Side 1  free  transition at x/c =  0.3776   50
 Side 2  free  transition at x/c =  0.8322   66

  16   rms: 0.3977E-02   max: -.9121E-01   C at   50  1
       a =  3.000      CL =  0.3259
      Cm =  0.0032     CD =  0.00690   =>   CDf =  0.00491    CDp =  0.00199

 Side 1  free  transition at x/c =  0.3776   50
 Side 2  free  transition at x/c =  0.8322   66

  17   rms: 0.3977E-02   max: -.9120E-01   C at   50  1
       a =  3.000      CL =  0.3259
      Cm =  0.0032     CD =  0.00690   =>   CDf =  0.00491    CDp =  0.00199

 Side 1  free  transition at x/c =  0.3776   50
 Side 2  free  transition at x/c =  0.8322   66

  18   rms: 0.3977E-02   max: -.9121E-01   C at   50  1
       a =  3.000      CL =  0.3259
      Cm =  0.0032     CD =  0.00690   =>   CDf =  0.00491    CDp =  0.00199

 Side 1  free  transition at x/c =  0.3776   50
 Side 2  free  transition at x/c =  0.8322   66

  19   rms: 0.3977E-02   max: -.9121E-01   C at   50  1
       a =  3.000      CL =  0.3259
      Cm =  0.0032     CD =  0.00690   =>   CDf =  0.00491    CDp =  0.00199

 Side 1  free  transition at x/c =  0.3776   50
 Side 2  free  transition at x/c =  0.8322   66

  20   rms: 0.3977E-02   max: -.9121E-01   C at   50  1
       a =  3.000      CL =  0.3259
      Cm =  0.0032     CD =  0.00690   =>   CDf =  0.00491    CDp =  0.00199

 Side 1  free  transition at x/c =  0.3776   50
 Side 2  free  transition at x/c =  0.8322   66

  21   rms: 0.3977E-02   max: -.9120E-01   C at   50  1
       a =  3.000      CL =  0.3259
      Cm =  0.0032     CD =  0.00690   =>   CDf =  0.00491    CDp =  0.00199

 Side 1  free  transition at x/c =  0.3776   50
 Side 2  free  transition at x/c =  0.8322   66

  22   rms: 0.3977E-02   max: -.9122E-01   C at   50  1
       a =  3.000      CL =  0.3259
      Cm =  0.0032     CD =  0.00690   =>   CDf =  0.00491    CDp =  0.00199

 Side 1  free  transition at x/c =  0.3776   50
 Side 2  free  transition at x/c =  0.8322   66

  23   rms: 0.3977E-02   max: -.9120E-01   C at   50  1
       a =  3.000      CL =  0.3259
      Cm =  0.0032     CD =  0.00690   =>   CDf =  0.00491    CDp =  0.00199

 Side 1  free  transition at x/c =  0.3776   50
 Side 2  free  transition at x/c =  0.8322   66

  24   rms: 0.3977E-02   max: -.9121E-01   C at   50  1
       a =  3.000      CL =  0.3259
      Cm =  0.0032     CD =  0.00690   =>   CDf =  0.00491    CDp =  0.00199

 Side 1  free  transition at x/c =  0.3776   50
 Side 2  free  transition at x/c =  0.8322   66

  25   rms: 0.3977E-02   max: -.9120E-01   C at   50  1
       a =  3.000      CL =  0.3259
      Cm =  0.0032     CD =  0.00690   =>   CDf =  0.00491    CDp =  0.00199

 Side 1  free  transition at x/c =  0.3776   50
 Side 2  free  transition at x/c =  0.8322   66

  26   rms: 0.3977E-02   max: -.9121E-01   C at   50  1
       a =  3.000      CL =  0.3259
      Cm =  0.0032     CD =  0.00690   =>   CDf =  0.00491    CDp =  0.00199

 Side 1  free  transition at x/c =  0.3776   50
 Side 2  free  transition at x/c =  0.8322   66

  27   rms: 0.3977E-02   max: -.9120E-01   C at   50  1
       a =  3.000      CL =  0.3259
      Cm =  0.0032     CD =  0.00690   =>   CDf =  0.00491    CDp =  0.00199

 Side 1  free  transition at x/c =  0.3776   50
 Side 2  free  transition at x/c =  0.8322   66

  28   rms: 0.3977E-02   max: -.9121E-01   C at   50  1
       a =  3.000      CL =  0.3259
      Cm =  0.0032     CD =  0.00690   =>   CDf =  0.00491    CDp =  0.00199

 Side 1  free  transition at x/c =  0.3776   50
 Side 2  free  transition at x/c =  0.8322   66

  29   rms: 0.3977E-02   max: -.9120E-01   C at   50  1
       a =  3.000      CL =  0.3259
      Cm =  0.0032     CD =  0.00690   =>   CDf =  0.00491    CDp =  0.00199

 Side 1  free  transition at x/c =  0.3776   50
 Side 2  free  transition at x/c =  0.8322   66

  30   rms: 0.3977E-02   max: -.9121E-01   C at   50  1
       a =  3.000      CL =  0.3259
      Cm =  0.0032     CD =  0.00690   =>   CDf =  0.00491    CDp =  0.00199

 Side 1  free  transition at x/c =  0.3776   50
 Side 2  free  transition at x/c =  0.8322   66

  31   rms: 0.3977E-02   max: -.9121E-01   C at   50  1
       a =  3.000      CL =  0.3259
      Cm =  0.0032     CD =  0.00690   =>   CDf =  0.00491    CDp =  0.00199

 Side 1  free  transition at x/c =  0.3776   50
 Side 2  free  transition at x/c =  0.8322   66

  32   rms: 0.3977E-02   max: -.9121E-01   C at   50  1
       a =  3.000      CL =  0.3259
      Cm =  0.0032     CD =  0.00690   =>   CDf =  0.00491    CDp =  0.00199

 Side 1  free  transition at x/c =  0.3776   50
 Side 2  free  transition at x/c =  0.8322   66

  33   rms: 0.3977E-02   max: -.9120E-01   C at   50  1
       a =  3.000      CL =  0.3259
      Cm =  0.0032     CD =  0.00690   =>   CDf =  0.00491    CDp =  0.00199

 Side 1  free  transition at x/c =  0.3776   50
 Side 2  free  transition at x/c =  0.8322   66

  34   rms: 0.3977E-02   max: -.9120E-01   C at   50  1
       a =  3.000      CL =  0.3259
      Cm =  0.0032     CD =  0.00690   =>   CDf =  0.00491    CDp =  0.00199

 Side 1  free  transition at x/c =  0.3776   50
 Side 2  free  transition at x/c =  0.8322   66

  35   rms: 0.3977E-02   max: -.9121E-01   C at   50  1
       a =  3.000      CL =  0.3259
      Cm =  0.0032     CD =  0.00690   =>   CDf =  0.00491    CDp =  0.00199

 Side 1  free  transition at x/c =  0.3776   50
 Side 2  free  transition at x/c =  0.8322   66

  36   rms: 0.3977E-02   max: -.9120E-01   C at   50  1
       a =  3.000      CL =  0.3259
      Cm =  0.0032     CD =  0.00690   =>   CDf =  0.00491    CDp =  0.00199

 Side 1  free  transition at x/c =  0.3776   50
 Side 2  free  transition at x/c =  0.8322   66

  37   rms: 0.3977E-02   max: -.9121E-01   C at   50  1
       a =  3.000      CL =  0.3259
      Cm =  0.0032     CD =  0.00690   =>   CDf =  0.00491    CDp =  0.00199

 Side 1  free  transition at x/c =  0.3776   50
 Side 2  free  transition at x/c =  0.8322   66

  38   rms: 0.3977E-02   max: -.9121E-01   C at   50  1
       a =  3.000      CL =  0.3259
      Cm =  0.0032     CD =  0.00690   =>   CDf =  0.00491    CDp =  0.00199

 Side 1  free  transition at x/c =  0.3776   50
 Side 2  free  transition at x/c =  0.8322   66

  39   rms: 0.3977E-02   max: -.9121E-01   C at   50  1
       a =  3.000      CL =  0.3259
      Cm =  0.0032     CD =  0.00690   =>   CDf =  0.00491    CDp =  0.00199

 Side 1  free  transition at x/c =  0.3776   50
 Side 2  free  transition at x/c =  0.8322   66

  40   rms: 0.3977E-02   max: -.9120E-01   C at   50  1
       a =  3.000      CL =  0.3259
      Cm =  0.0032     CD =  0.00690   =>   CDf =  0.00491    CDp =  0.00199

 Side 1  free  transition at x/c =  0.3776   50
 Side 2  free  transition at x/c =  0.8322   66

  41   rms: 0.3977E-02   max: -.9121E-01   C at   50  1
       a =  3.000      CL =  0.3259
      Cm =  0.0032     CD =  0.00690   =>   CDf =  0.00491    CDp =  0.00199

 Side 1  free  transition at x/c =  0.3776   50
 Side 2  free  transition at x/c =  0.8322   66

  42   rms: 0.3977E-02   max: -.9120E-01   C at   50  1
       a =  3.000      CL =  0.3259
      Cm =  0.0032     CD =  0.00690   =>   CDf =  0.00491    CDp =  0.00199

 Side 1  free  transition at x/c =  0.3776   50
 Side 2  free  transition at x/c =  0.8322   66

  43   rms: 0.3977E-02   max: -.9121E-01   C at   50  1
       a =  3.000      CL =  0.3259
      Cm =  0.0032     CD =  0.00690   =>   CDf =  0.00491    CDp =  0.00199

 Side 1  free  transition at x/c =  0.3776   50
 Side 2  free  transition at x/c =  0.8322   66

  44   rms: 0.3977E-02   max: -.9121E-01   C at   50  1
       a =  3.000      CL =  0.3259
      Cm =  0.0032     CD =  0.00690   =>   CDf =  0.00491    CDp =  0.00199

 Side 1  free  transition at x/c =  0.3776   50
 Side 2  free  transition at x/c =  0.8322   66

  45   rms: 0.3977E-02   max: -.9120E-01   C at   50  1
       a =  3.000      CL =  0.3259
      Cm =  0.0032     CD =  0.00690   =>   CDf =  0.00491    CDp =  0.00199
 VISCAL:  Convergence failed
 Calculating wake trajectory ...
 Calculating source influence matrix ...

 Solving BL system ...

 Side 1  free  transition at x/c =  0.3776   50
 Side 2  free  transition at x/c =  0.8322   66

   1   rms: 0.4326E-01   max: -.3333E+00   C at   66  2
       a =  3.250      CL =  0.3534
      Cm =  0.0035     CD =  0.00691   =>   CDf =  0.00491    CDp =  0.00199

 Side 1  free  transition at x/c =  0.3575   49
 Side 2  free  transition at x/c =  0.8439   66

   2   rms: 0.9900E-02   max: -.1592E+00   C at   66  2
       a =  3.250      CL =  0.3530
      Cm =  0.0035     CD =  0.00702   =>   CDf =  0.00497    CDp =  0.00205

 Side 1  free  transition at x/c =  0.3601   49
 Side 2  free  transition at x/c =  0.8479   67

   3   rms: 0.2613E-02   max: -.4155E-01   C at   67  2
       a =  3.250      CL =  0.3529
      Cm =  0.0035     CD =  0.00701   =>   CDf =  0.00494    CDp =  0.00208

 Side 1  free  transition at x/c =  0.3601   49
 Side 2  free  transition at x/c =  0.8483   67

   4   rms: 0.1595E-03   max: 0.2614E-02   C at   67  2
       a =  3.250      CL =  0.3529
      Cm =  0.0035     CD =  0.00702   =>   CDf =  0.00492    CDp =  0.00209

 Side 1  free  transition at x/c =  0.3601   49
 Side 2  free  transition at x/c =  0.8482   67

   5   rms: 0.8925E-06   max: 0.1125E-04   C at   67  2
       a =  3.250      CL =  0.3529
      Cm =  0.0035     CD =  0.00702   =>   CDf =  0.00492    CDp =  0.00209

 Point added to stored polar  1
 Point written to save file  polar_tmp.dat                                   
 Dump file unspecified or not available
 Calculating wake trajectory ...
 Calculating source influence matrix ...

 Solving BL system ...

 Side 1  free  transition at x/c =  0.3601   49
 Side 2  free  transition at x/c =  0.8482   67

   1   rms: 0.4468E-01   max: 0.3149E+00   C at   49  1
       a =  3.500      CL =  0.3801
      Cm =  0.0039     CD =  0.00704   =>   CDf =  0.00487    CDp =  0.00217

 Side 1  free  transition at x/c =  0.3403   49
 Side 2  free  transition at x/c =  0.8602   66

   2   rms: 0.8554E-02   max: -.1304E+00   C at   66  2
       a =  3.500      CL =  0.3797
      Cm =  0.0039     CD =  0.00713   =>   CDf =  0.00497    CDp =  0.00217

 Side 1  free  transition at x/c =  0.3426   49
 Side 2  free  transition at x/c =  0.8638   66

   3   rms: 0.3763E-03   max: -.4215E-02   D at   68  2
       a =  3.500      CL =  0.3797
      Cm =  0.0039     CD =  0.00713   =>   CDf =  0.00494    CDp =  0.00220

 Side 1  free  transition at x/c =  0.3425   49
 Side 2  free  transition at x/c =  0.8635   66

   4   rms: 0.1861E-05   max: -.3770E-04   C at   66  2
       a =  3.500      CL =  0.3797
      Cm =  0.0039     CD =  0.00713   =>   CDf =  0.00494    CDp =  0.00220

 Point added to stored polar  1
 Point written to save file  polar_tmp.dat                                   
 Dump file unspecified or not available
 Calculating wake trajectory ...
 Calculating source influence matrix ...

 Solving BL system ...

 Side 1  free  transition at x/c =  0.3425   49
 Side 2  free  transition at x/c =  0.8635   66

   1   rms: 0.4194E-01   max: 0.3215E+00   C at   49  1
       a =  3.750      CL =  0.4075
      Cm =  0.0040     CD =  0.00722   =>   CDf =  0.00494    CDp =  0.00228

 Side 1  free  transition at x/c =  0.3220   48
 Side 2  free  transition at x/c =  0.8793   67

   2   rms: 0.7836E-02   max: -.1238E+00   C at   48  1
       a =  3.750      CL =  0.4063
      Cm =  0.0043     CD =  0.00727   =>   CDf =  0.00495    CDp =  0.00231

 Side 1  free  transition at x/c =  0.3247   48
 Side 2  free  transition at x/c =  0.8781   67

   3   rms: 0.2587E-03   max: 0.3716E-02   C at   67  2
       a =  3.750      CL =  0.4063
      Cm =  0.0043     CD =  0.00727   =>   CDf =  0.00495    CDp =  0.00231

 Side 1  free  transition at x/c =  0.3246   48
 Side 2  free  transition at x/c =  0.8780   67

   4   rms: 0.6896E-06   max: -.6808E-05   D at   69  2
       a =  3.750      CL =  0.4063
      Cm =  0.0043     CD =  0.00727   =>   CDf =  0.00495    CDp =  0.00231

 Point added to stored polar  1
 Point written to save file  polar_tmp.dat                                   
 Dump file unspecified or not available
 Calculating wake trajectory ...
 Calculating source influence matrix ...

 Solving BL system ...

 Side 1  free  transition at x/c =  0.3246   48
 Side 2  free  transition at x/c =  0.8780   67

   1   rms: 0.4280E-01   max: 0.3538E+00   C at   48  1
       a =  4.000      CL =  0.4337
      Cm =  0.0045     CD =  0.00736   =>   CDf =  0.00495    CDp =  0.00241

 Side 1  free  transition at x/c =  0.3045   47
 Side 2  free  transition at x/c =  0.8906   68

   2   rms: 0.5620E-02   max: -.1138E+00   C at   47  1
       a =  4.000      CL =  0.4328
      Cm =  0.0047     CD =  0.00742   =>   CDf =  0.00499    CDp =  0.00242

 Side 1  free  transition at x/c =  0.3069   47
 Side 2  free  transition at x/c =  0.8914   68

   3   rms: 0.1219E-03   max: -.2425E-02   D at   48  1
       a =  4.000      CL =  0.4328
      Cm =  0.0047     CD =  0.00742   =>   CDf =  0.00498    CDp =  0.00244

 Side 1  free  transition at x/c =  0.3069   47
 Side 2  free  transition at x/c =  0.8914   68

   4   rms: 0.9978E-06   max: 0.8815E-05   D at    4  2
       a =  4.000      CL =  0.4328
      Cm =  0.0047     CD =  0.00742   =>   CDf =  0.00498    CDp =  0.00244

 Point added to stored polar  1
 Point written to save file  polar_tmp.dat                                   
 Dump file unspecified or not available
 Calculating wake trajectory ...
 Calculating source influence matrix ...

 Solving BL system ...

 Side 1  free  transition at x/c =  0.3069   47
 Side 2  free  transition at x/c =  0.8914   68

   1   rms: 0.4378E-01   max: 0.3769E+00   C at   47  1
       a =  4.250      CL =  0.4599
      Cm =  0.0050     CD =  0.00752   =>   CDf =  0.00493    CDp =  0.00259

 Side 1  free  transition at x/c =  0.2847   47
 Side 2  free  transition at x/c =  0.9007   68

   2   rms: 0.1133E-01   max: -.1320E+00   C at   47  1
       a =  4.250      CL =  0.4593
      Cm =  0.0051     CD =  0.00758   =>   CDf =  0.00507    CDp =  0.00250

 Side 1  free  transition at x/c =  0.2877   47
 Side 2  free  transition at x/c =  0.9049   68

   3   rms: 0.1939E-02   max: -.2824E-01   D at   69  2
       a =  4.250      CL =  0.4592
      Cm =  0.0051     CD =  0.00759   =>   CDf =  0.00502    CDp =  0.00257

 Side 1  free  transition at x/c =  0.2878   47
 Side 2  free  transition at x/c =  0.9041   68

   4   rms: 0.3219E-04   max: -.6794E-03   D at   69  2
       a =  4.250      CL =  0.4592
      Cm =  0.0051     CD =  0.00759   =>   CDf =  0.00502    CDp =  0.00257

 Point added to stored polar  1
 Point written to save file  polar_tmp.dat                                   
 Dump file unspecified or not available
 Calculating wake trajectory ...
 Calculating source influence matrix ...

 Solving BL system ...

 Side 1  free  transition at x/c =  0.2878   47
 Side 2  free  transition at x/c =  0.9041   68

   1   rms: 0.4833E-01   max: 0.5387E+00   C at   47  1
       a =  4.500      CL =  0.4858
      Cm =  0.0056     CD =  0.00772   =>   CDf =  0.00502    CDp =  0.00270

 Side 1  free  transition at x/c =  0.2627   46
 Side 2  free  transition at x/c =  0.9132   68

   2   rms: 0.9890E-02   max: -.1271E+00   C at   46  1
       a =  4.500      CL =  0.4852
      Cm =  0.0056     CD =  0.00778   =>   CDf =  0.00512    CDp =  0.00266

 Side 1  free  transition at x/c =  0.2663   46
 Side 2  free  transition at x/c =  0.9166   68

   3   rms: 0.3558E-03   max: -.5108E-02   D at   70  2
       a =  4.500      CL =  0.4851
      Cm =  0.0056     CD =  0.00779   =>   CDf =  0.00508    CDp =  0.00271

 Side 1  free  transition at x/c =  0.2664   46
 Side 2  free  transition at x/c =  0.9163   68

   4   rms: 0.3631E-05   max: -.6729E-04   C at   68  2
       a =  4.500      CL =  0.4851
      Cm =  0.0056     CD =  0.00779   =>   CDf =  0.00508    CDp =  0.00271

 Point added to stored polar  1
 Point written to save file  polar_tmp.dat                                   
 Dump file unspecified or not available
 Calculating wake trajectory ...
 Calculating source influence matrix ...

 Solving BL system ...

 Side 1  free  transition at x/c =  0.2664   46
 Side 2  free  transition at x/c =  0.9163   68

   1   rms: 0.5298E-01   max: 0.7128E+00   C at   46  1
       a =  4.750      CL =  0.5109
      Cm =  0.0061     CD =  0.00802   =>   CDf =  0.00503    CDp =  0.00299

 Side 1  free  transition at x/c =  0.2424   46
 Side 2  free  transition at x/c =  0.9296   68

   2   rms: 0.1144E-01   max: 0.1613E+00   C at   68  2
       a =  4.750      CL =  0.5105
      Cm =  0.0062     CD =  0.00802   =>   CDf =  0.00516    CDp =  0.00286

 Side 1  free  transition at x/c =  0.2456   46
 Side 2  free  transition at x/c =  0.9272   68

   3   rms: 0.1515E-02   max: 0.2029E-01   C at   46  1
       a =  4.750      CL =  0.5108
      Cm =  0.0062     CD =  0.00802   =>   CDf =  0.00514    CDp =  0.00288

 Side 1  free  transition at x/c =  0.2449   46
 Side 2  free  transition at x/c =  0.9268   68

   4   rms: 0.9386E-05   max: -.1359E-03   C at   68  2
       a =  4.750      CL =  0.5108
      Cm =  0.0062     CD =  0.00802   =>   CDf =  0.00515    CDp =  0.00287

 Point added to stored polar  1
 Point written to save file  polar_tmp.dat                                   
 Dump file unspecified or not available
 Calculating wake trajectory ...
 Calculating source influence matrix ...

 Solving BL system ...

 Side 1  free  transition at x/c =  0.2449   46
 Side 2  free  transition at x/c =  0.9268   68

   1   rms: 0.5375E-01   max: 0.5709E+00   C at   46  1
       a =  5.000      CL =  0.5358
      Cm =  0.0068     CD =  0.00831   =>   CDf =  0.00515    CDp =  0.00316

 Side 1  free  transition at x/c =  0.2274   45
 Side 2  free  transition at x/c =  0.9350   68

   2   rms: 0.8168E-02   max: 0.9457E-01   D at   45  1
       a =  5.000      CL =  0.5360
      Cm =  0.0068     CD =  0.00824   =>   CDf =  0.00523    CDp =  0.00301

 Side 1  free  transition at x/c =  0.2280   45
 Side 2  free  transition at x/c =  0.9389   69

   3   rms: 0.4319E-02   max: 0.5410E-01   C at   69  2
       a =  5.000      CL =  0.5364
      Cm =  0.0067     CD =  0.00824   =>   CDf =  0.00520    CDp =  0.00304

 Side 1  free  transition at x/c =  0.2278   45
 Side 2  free  transition at x/c =  0.9372   69

   4   rms: 0.2764E-03   max: -.3917E-02   D at   71  2
       a =  5.000      CL =  0.5365
      Cm =  0.0067     CD =  0.00824   =>   CDf =  0.00521    CDp =  0.00303

 Side 1  free  transition at x/c =  0.2278   45
 Side 2  free  transition at x/c =  0.9371   69

   5   rms: 0.6977E-06   max: -.9570E-05   D at   71  2
       a =  5.000      CL =  0.5365
      Cm =  0.0067     CD =  0.00824   =>   CDf =  0.00521    CDp =  0.00303

 Point added to stored polar  1
 Point written to save file  polar_tmp.dat                                   
 Dump file unspecified or not available
 Calculating wake trajectory ...
 Calculating source influence matrix ...

 Solving BL system ...

 Side 1  free  transition at x/c =  0.2278   45
 Side 2  free  transition at x/c =  0.9371   69

   1   rms: 0.5126E-01   max: 0.4478E+00   C at   45  1
       a =  5.250      CL =  0.5624
      Cm =  0.0072     CD =  0.00851   =>   CDf =  0.00521    CDp =  0.00330

 Side 1  free  transition at x/c =  0.2108   44
 Side 2  free  transition at x/c =  0.9443   69

   2   rms: 0.8181E-02   max: 0.1152E+00   D at   44  1
       a =  5.250      CL =  0.5622
      Cm =  0.0073     CD =  0.00846   =>   CDf =  0.00528    CDp =  0.00319

 Side 1  free  transition at x/c =  0.2122   44
 Side 2  free  transition at x/c =  0.9466   69

   3   rms: 0.6435E-03   max: -.7598E-02   D at   44  1
       a =  5.250      CL =  0.5624
      Cm =  0.0072     CD =  0.00846   =>   CDf =  0.00526    CDp =  0.00321

 Side 1  free  transition at x/c =  0.2120   44
 Side 2  free  transition at x/c =  0.9464   69

   4   rms: 0.5356E-05   max: -.7728E-04   C at   69  2
       a =  5.250      CL =  0.5624
      Cm =  0.0072     CD =  0.00846   =>   CDf =  0.00526    CDp =  0.00320

 Point added to stored polar  1
 Point written to save file  polar_tmp.dat                                   
 Dump file unspecified or not available
 Calculating wake trajectory ...
 Calculating source influence matrix ...

 Solving BL system ...

 Side 1  free  transition at x/c =  0.2120   44
 Side 2  free  transition at x/c =  0.9464   69

   1   rms: 0.4949E-01   max: 0.4629E+00   C at   44  1
       a =  5.500      CL =  0.5866
      Cm =  0.0080     CD =  0.00875   =>   CDf =  0.00521    CDp =  0.00354

 Side 1  free  transition at x/c =  0.1956   44
 Side 2  free  transition at x/c =  0.9558   69

   2   rms: 0.6879E-02   max: 0.8753E-01   D at   44  1
       a =  5.500      CL =  0.5884
      Cm =  0.0077     CD =  0.00870   =>   CDf =  0.00532    CDp =  0.00338

 Side 1  free  transition at x/c =  0.1962   44
 Side 2  free  transition at x/c =  0.9547   69

   3   rms: 0.5356E-03   max: -.4710E-02   D at   71  2
       a =  5.500      CL =  0.5886
      Cm =  0.0077     CD =  0.00870   =>   CDf =  0.00532    CDp =  0.00339

 Side 1  free  transition at x/c =  0.1961   44
 Side 2  free  transition at x/c =  0.9545   69

   4   rms: 0.2174E-05   max: -.2105E-04   D at   71  2
       a =  5.500      CL =  0.5886
      Cm =  0.0077     CD =  0.00870   =>   CDf =  0.00532    CDp =  0.00338

 Point added to stored polar  1
 Point written to save file  polar_tmp.dat                                   
 Dump file unspecified or not available
 Calculating wake trajectory ...
 Calculating source influence matrix ...

 Solving BL system ...

 Side 1  free  transition at x/c =  0.1961   44
 Side 2  free  transition at x/c =  0.9545   69

   1   rms: 0.5228E-01   max: 0.4813E+00   C at   44  1
       a =  5.750      CL =  0.6157
      Cm =  0.0078     CD =  0.00901   =>   CDf =  0.00532    CDp =  0.00370

 Side 1  free  transition at x/c =  0.1800   43
 Side 2  free  transition at x/c =  0.9606   69

   2   rms: 0.7850E-02   max: 0.1001E+00   D at   43  1
       a =  5.750      CL =  0.6144
      Cm =  0.0081     CD =  0.00896   =>   CDf =  0.00539    CDp =  0.00356

 Side 1  free  transition at x/c =  0.1811   43
 Side 2  free  transition at x/c =  0.9628   69

   3   rms: 0.4623E-03   max: 0.5597E-02   C at   43  1
       a =  5.750      CL =  0.6147
      Cm =  0.0081     CD =  0.00896   =>   CDf =  0.00538    CDp =  0.00358

 Side 1  free  transition at x/c =  0.1810   43
 Side 2  free  transition at x/c =  0.9626   69

   4   rms: 0.4436E-05   max: -.4903E-04   D at   70  2
       a =  5.750      CL =  0.6147
      Cm =  0.0081     CD =  0.00896   =>   CDf =  0.00538    CDp =  0.00358

 Point added to stored polar  1
 Point written to save file  polar_tmp.dat                                   
 Dump file unspecified or not available
 Calculating wake trajectory ...
 Calculating source influence matrix ...

 Solving BL system ...

 Side 1  free  transition at x/c =  0.1810   43
 Side 2  free  transition at x/c =  0.9626   69

   1   rms: 0.4805E-01   max: 0.4534E+00   C at   43  1
       a =  6.000      CL =  0.6385
      Cm =  0.0090     CD =  0.00925   =>   CDf =  0.00538    CDp =  0.00387

 Side 1  free  transition at x/c =  0.1677   42
 Side 2  free  transition at x/c =  0.9723   70

   2   rms: 0.1416E-01   max: 0.1804E+00   C at   70  2
       a =  6.000      CL =  0.6419
      Cm =  0.0083     CD =  0.00920   =>   CDf =  0.00543    CDp =  0.00377

 Side 1  free  transition at x/c =  0.1671   42
 Side 2  free  transition at x/c =  0.9693   70

   3   rms: 0.1735E-02   max: -.1818E-01   D at   72  2
       a =  6.000      CL =  0.6430
      Cm =  0.0080     CD =  0.00922   =>   CDf =  0.00544    CDp =  0.00378

 Side 1  free  transition at x/c =  0.1669   42
 Side 2  free  transition at x/c =  0.9686   70

   4   rms: 0.6188E-04   max: -.1097E-02   D at   70  2
       a =  6.000      CL =  0.6430
      Cm =  0.0080     CD =  0.00922   =>   CDf =  0.00544    CDp =  0.00378

 Point added to stored polar  1
 Point written to save file  polar_tmp.dat                                   
 Dump file unspecified or not available
 Calculating wake trajectory ...
 Calculating source influence matrix ...

 Solving BL system ...

 Side 1  free  transition at x/c =  0.1669   42
 Side 2  free  transition at x/c =  0.9686   70

   1   rms: 0.5129E-01   max: 0.5042E+00   C at   42  1
       a =  6.250      CL =  0.6728
      Cm =  0.0076     CD =  0.00954   =>   CDf =  0.00539    CDp =  0.00415

 Side 1  free  transition at x/c =  0.1530   42
 Side 2  free  transition at x/c =  0.9729   69

   2   rms: 0.5641E-02   max: -.5040E-01   D at   69  2
       a =  6.250      CL =  0.6728
      Cm =  0.0076     CD =  0.00950   =>   CDf =  0.00550    CDp =  0.00400

 Side 1  free  transition at x/c =  0.1533   42
 Side 2  free  transition at x/c =  0.9739   69

   3   rms: 0.3344E-03   max: -.2300E-02   D at    4  1
       a =  6.250      CL =  0.6729
      Cm =  0.0075     CD =  0.00950   =>   CDf =  0.00550    CDp =  0.00400

 Side 1  free  transition at x/c =  0.1533   42
 Side 2  free  transition at x/c =  0.9738   69

   4   rms: 0.3123E-05   max: -.3883E-04   D at   70  2
       a =  6.250      CL =  0.6729
      Cm =  0.0075     CD =  0.00950   =>   CDf =  0.00550    CDp =  0.00400

 Point added to stored polar  1
 Point written to save file  polar_tmp.dat                                   
 Dump file unspecified or not available
 Calculating wake trajectory ...
 Calculating source influence matrix ...

 Solving BL system ...

 Side 1  free  transition at x/c =  0.1533   42
 Side 2  free  transition at x/c =  0.9738   69

   1   rms: 0.4902E-01   max: 0.4925E+00   C at   42  1
       a =  6.500      CL =  0.7021
      Cm =  0.0072     CD =  0.00981   =>   CDf =  0.00550    CDp =  0.00431

 Side 1  free  transition at x/c =  0.1405   41
 Side 2  free  transition at x/c =  0.9786   69

   2   rms: 0.8782E-02   max: -.8066E-01   D at   71  2
       a =  6.500      CL =  0.6965
      Cm =  0.0085     CD =  0.00977   =>   CDf =  0.00556    CDp =  0.00420

 Side 1  free  transition at x/c =  0.1417   41
 Side 2  free  transition at x/c =  0.9832   70

   3   rms: 0.1769E-01   max: 0.2109E+00   C at   70  2
       a =  6.500      CL =  0.7009
      Cm =  0.0075     CD =  0.00976   =>   CDf =  0.00556    CDp =  0.00420

 Side 1  free  transition at x/c =  0.1410   41
 Side 2  free  transition at x/c =  0.9797   70

   4   rms: 0.1052E-02   max: 0.1290E-01   T at   70  2
       a =  6.500      CL =  0.7015
      Cm =  0.0074     CD =  0.00979   =>   CDf =  0.00556    CDp =  0.00422

 Side 1  free  transition at x/c =  0.1409   41
 Side 2  free  transition at x/c =  0.9794   70

   5   rms: 0.2791E-04   max: -.5391E-03   D at   70  2
       a =  6.500      CL =  0.7015
      Cm =  0.0074     CD =  0.00979   =>   CDf =  0.00556    CDp =  0.00422

 Point added to stored polar  1
 Point written to save file  polar_tmp.dat                                   
 Dump file unspecified or not available
 Calculating wake trajectory ...
 Calculating source influence matrix ...

 Solving BL system ...

 Side 1  free  transition at x/c =  0.1409   41
 Side 2  free  transition at x/c =  0.9794   70

   1   rms: 0.5016E-01   max: 0.4864E+00   C at   41  1
       a =  6.750      CL =  0.7357
      Cm =  0.0059     CD =  0.01009   =>   CDf =  0.00551    CDp =  0.00458

 Side 1  free  transition at x/c =  0.1279   41
 Side 2  free  transition at x/c =  0.9815   69

   2   rms: 0.2417E-02   max: -.4025E-01   C at   41  1
       a =  6.750      CL =  0.7358
      Cm =  0.0059     CD =  0.01011   =>   CDf =  0.00563    CDp =  0.00447

 Side 1  free  transition at x/c =  0.1283   41
 Side 2  free  transition at x/c =  0.9816   69

   3   rms: 0.2377E-03   max: -.2845E-02   D at    4  1
       a =  6.750      CL =  0.7359
      Cm =  0.0059     CD =  0.01011   =>   CDf =  0.00563    CDp =  0.00448

 Side 1  free  transition at x/c =  0.1283   41
 Side 2  free  transition at x/c =  0.9816   69

   4   rms: 0.1504E-05   max: -.1765E-04   D at    4  1
       a =  6.750      CL =  0.7359
      Cm =  0.0059     CD =  0.01011   =>   CDf =  0.00563    CDp =  0.00448

 Point added to stored polar  1
 Point written to save file  polar_tmp.dat                                   
 Dump file unspecified or not available
 Calculating wake trajectory ...
 Calculating source influence matrix ...

 Solving BL system ...

 Side 1  free  transition at x/c =  0.1283   41
 Side 2  free  transition at x/c =  0.9816   69

   1   rms: 0.4848E-01   max: 0.4168E+00   C at   41  1
       a =  7.000      CL =  0.7709
      Cm =  0.0042     CD =  0.01039   =>   CDf =  0.00563    CDp =  0.00476

 Side 1  free  transition at x/c =  0.1160   40
 Side 2  free  transition at x/c =  0.9835   69

   2   rms: 0.3341E-02   max: -.6916E-01   C at   40  1
       a =  7.000      CL =  0.7706
      Cm =  0.0042     CD =  0.01044   =>   CDf =  0.00570    CDp =  0.00474

 Side 1  free  transition at x/c =  0.1165   40
 Side 2  free  transition at x/c =  0.9835   69

   3   rms: 0.4995E-04   max: 0.8641E-03   C at   40  1
       a =  7.000      CL =  0.7706
      Cm =  0.0042     CD =  0.01044   =>   CDf =  0.00570    CDp =  0.00474

 Point added to stored polar  1
 Point written to save file  polar_tmp.dat                                   
 Dump file unspecified or not available
 Calculating wake trajectory ...
 Calculating source influence matrix ...

 Solving BL system ...

 Side 1  free  transition at x/c =  0.1165   40
 Side 2  free  transition at x/c =  0.9835   69

   1   rms: 0.4628E-01   max: 0.2879E+00   C at   40  1
       a =  7.250      CL =  0.8060
      Cm =  0.0025     CD =  0.01071   =>   CDf =  0.00570    CDp =  0.00501

 Side 1  free  transition at x/c =  0.1050   39
 Side 2  free  transition at x/c =  0.9852   69

   2   rms: 0.3931E-02   max: -.7234E-01   C at   39  1
       a =  7.250      CL =  0.8047
      Cm =  0.0027     CD =  0.01079   =>   CDf =  0.00578    CDp =  0.00501

 Side 1  free  transition at x/c =  0.1055   39
 Side 2  free  transition at x/c =  0.9857   69

   3   rms: 0.5258E-04   max: -.8106E-03   D at   40  1
       a =  7.250      CL =  0.8046
      Cm =  0.0027     CD =  0.01079   =>   CDf =  0.00577    CDp =  0.00502

 Point added to stored polar  1
 Point written to save file  polar_tmp.dat                                   
 Dump file unspecified or not available
 Calculating wake trajectory ...
 Calculating source influence matrix ...

 Solving BL system ...

 Side 1  free  transition at x/c =  0.1055   39
 Side 2  free  transition at x/c =  0.9857   69

   1   rms: 0.4328E-01   max: -.1553E+00   D at   39  1
       a =  7.500      CL =  0.8391
      Cm =  0.0013     CD =  0.01102   =>   CDf =  0.00570    CDp =  0.00532

 Side 1  free  transition at x/c =  0.0964   40
 Side 2  free  transition at x/c =  0.9879   68

   2   rms: 0.3465E-02   max: 0.4126E-01   D at   40  1
       a =  7.500      CL =  0.8375
      Cm =  0.0015     CD =  0.01110   =>   CDf =  0.00583    CDp =  0.00527

 Side 1  free  transition at x/c =  0.0971   40
 Side 2  free  transition at x/c =  0.9885   68

   3   rms: 0.3457E-03   max: -.3223E-02   D at   40  1
       a =  7.500      CL =  0.8375
      Cm =  0.0015     CD =  0.01110   =>   CDf =  0.00582    CDp =  0.00529

 Side 1  free  transition at x/c =  0.0971   40
 Side 2  free  transition at x/c =  0.9885   68

   4   rms: 0.1222E-05   max: -.9070E-05   D at   40  1
       a =  7.500      CL =  0.8375
      Cm =  0.0015     CD =  0.01110   =>   CDf =  0.00582    CDp =  0.00528

 Point added to stored polar  1
 Point written to save file  polar_tmp.dat                                   
 Dump file unspecified or not available
 Calculating wake trajectory ...
 Calculating source influence matrix ...

 Solving BL system ...

 Side 1  free  transition at x/c =  0.0971   40
 Side 2  free  transition at x/c =  0.9885   68

   1   rms: 0.4862E-01   max: -.3744E+00   D at   40  1
       a =  7.750      CL =  0.8685
      Cm =  0.0006     CD =  0.01151   =>   CDf =  0.00582    CDp =  0.00569

 Side 1  free  transition at x/c =  0.0898   39
 Side 2  free  transition at x/c =  0.9916   69

   2   rms: 0.6762E-02   max: -.8812E-01   D at   40  1
       a =  7.750      CL =  0.8697
      Cm =  0.0004     CD =  0.01141   =>   CDf =  0.00584    CDp =  0.00557

 Side 1  free  transition at x/c =  0.0894   39
 Side 2  free  transition at x/c =  0.9911   69

   3   rms: 0.1563E-03   max: -.2069E-02   D at   40  1
       a =  7.750      CL =  0.8697
      Cm =  0.0004     CD =  0.01141   =>   CDf =  0.00585    CDp =  0.00556

 Side 1  free  transition at x/c =  0.0894   39
 Side 2  free  transition at x/c =  0.9911   69

   4   rms: 0.6143E-06   max: -.6126E-05   D at   69  2
       a =  7.750      CL =  0.8697
      Cm =  0.0004     CD =  0.01141   =>   CDf =  0.00585    CDp =  0.00556

 Point added to stored polar  1
 Point written to save file  polar_tmp.dat                                   
 Dump file unspecified or not available
 Calculating wake trajectory ...
 Calculating source influence matrix ...

 Solving BL system ...

 Side 1  free  transition at x/c =  0.0894   39
 Side 2  free  transition at x/c =  0.9911   69

   1   rms: 0.4858E-01   max: 0.3279E+00   C at   39  1
       a =  8.000      CL =  0.9049
      Cm = -0.0013     CD =  0.01176   =>   CDf =  0.00585    CDp =  0.00591

 Side 1  free  transition at x/c =  0.0816   38
 Side 2  free  transition at x/c =  0.9922   69

   2   rms: 0.3833E-02   max: -.6258E-01   C at   38  1
       a =  8.000      CL =  0.9045
      Cm = -0.0013     CD =  0.01176   =>   CDf =  0.00590    CDp =  0.00586

 Side 1  free  transition at x/c =  0.0814   38
 Side 2  free  transition at x/c =  0.9923   69

   3   rms: 0.1018E-03   max: 0.1996E-02   C at   38  1
       a =  8.000      CL =  0.9045
      Cm = -0.0013     CD =  0.01177   =>   CDf =  0.00591    CDp =  0.00586

 Side 1  free  transition at x/c =  0.0814   38
 Side 2  free  transition at x/c =  0.9923   69

   4   rms: 0.7141E-06   max: -.7275E-05   D at   69  2
       a =  8.000      CL =  0.9045
      Cm = -0.0013     CD =  0.01177   =>   CDf =  0.00591    CDp =  0.00586

 Point added to stored polar  1
 Point written to save file  polar_tmp.dat                                   
 Dump file unspecified or not available
 Calculating wake trajectory ...
 Calculating source influence matrix ...

 Solving BL system ...

 Side 1  free  transition at x/c =  0.0814   38
 Side 2  free  transition at x/c =  0.9923   69

   1   rms: 0.4535E-01   max: -.2014E+00   D at   38  1
       a =  8.250      CL =  0.9397
      Cm = -0.0030     CD =  0.01206   =>   CDf =  0.00580    CDp =  0.00626

 Side 1  free  transition at x/c =  0.0736   38
 Side 2  free  transition at x/c =  0.9936   68

   2   rms: 0.3573E-02   max: -.5365E-01   C at   38  1
       a =  8.250      CL =  0.9386
      Cm = -0.0029     CD =  0.01215   =>   CDf =  0.00597    CDp =  0.00618

 Side 1  free  transition at x/c =  0.0735   38
 Side 2  free  transition at x/c =  0.9939   68

   3   rms: 0.2737E-03   max: -.2800E-02   D at    4  1
       a =  8.250      CL =  0.9386
      Cm = -0.0029     CD =  0.01215   =>   CDf =  0.00596    CDp =  0.00619

 Side 1  free  transition at x/c =  0.0735   38
 Side 2  free  transition at x/c =  0.9939   68

   4   rms: 0.4078E-06   max: 0.2678E-05   D at   68  2
       a =  8.250      CL =  0.9386
      Cm = -0.0029     CD =  0.01215   =>   CDf =  0.00596    CDp =  0.00619

 Point added to stored polar  1
 Point written to save file  polar_tmp.dat                                   
 Dump file unspecified or not available
 Calculating wake trajectory ...
 Calculating source influence matrix ...

 Solving BL system ...

 Side 1  free  transition at x/c =  0.0735   38
 Side 2  free  transition at x/c =  0.9939   68

   1   rms: 0.4409E-01   max: -.1755E+00   D at   38  1
       a =  8.500      CL =  0.9736
      Cm = -0.0045     CD =  0.01239   =>   CDf =  0.00596    CDp =  0.00642

 Side 1  free  transition at x/c =  0.0669   38
 Side 2  free  transition at x/c =  0.9953   68

   2   rms: 0.2203E-02   max: -.2152E-01   D at   37  1
       a =  8.500      CL =  0.9722
      Cm = -0.0043     CD =  0.01251   =>   CDf =  0.00600    CDp =  0.00651

 Side 1  free  transition at x/c =  0.0668   38
 Side 2  free  transition at x/c =  0.9956   68

   3   rms: 0.8166E-04   max: -.1282E-02   D at   38  1
       a =  8.500      CL =  0.9722
      Cm = -0.0043     CD =  0.01251   =>   CDf =  0.00600    CDp =  0.00651

 Point added to stored polar  1
 Point written to save file  polar_tmp.dat                                   
 Dump file unspecified or not available
 Calculating wake trajectory ...
 Calculating source influence matrix ...

 Solving BL system ...

 Side 1  free  transition at x/c =  0.0668   38
 Side 2  free  transition at x/c =  0.9956   68

   1   rms: 0.5142E-01   max: -.4294E+00   D at   38  1
       a =  8.750      CL =  1.0046
      Cm = -0.0056     CD =  0.01302   =>   CDf =  0.00600    CDp =  0.00701

 Side 1  free  transition at x/c =  0.0610   37
 Side 2  free  transition at x/c =  0.9974   68

   2   rms: 0.9481E-02   max: -.1350E+00   D at   38  1
       a =  8.750      CL =  1.0054
      Cm = -0.0057     CD =  0.01287   =>   CDf =  0.00602    CDp =  0.00686

 Side 1  free  transition at x/c =  0.0608   37
 Side 2  free  transition at x/c =  0.9974   68

   3   rms: 0.5587E-03   max: 0.6773E-02   C at   37  1
       a =  8.750      CL =  1.0053
      Cm = -0.0057     CD =  0.01289   =>   CDf =  0.00604    CDp =  0.00685

 Side 1  free  transition at x/c =  0.0607   37
 Side 2  free  transition at x/c =  0.9974   68

   4   rms: 0.1150E-04   max: -.2071E-03   D at    2  2
       a =  8.750      CL =  1.0053
      Cm = -0.0057     CD =  0.01289   =>   CDf =  0.00604    CDp =  0.00685

 Point added to stored polar  1
 Point written to save file  polar_tmp.dat                                   
 Dump file unspecified or not available
 Calculating wake trajectory ...
 Calculating source influence matrix ...

 Solving BL system ...

 Side 1  free  transition at x/c =  0.0607   37
 Side 2  free  transition at x/c =  0.9974   68

   1   rms: 0.5877E-01   max: -.6116E+00   D at    3  2   RLX: 0.817
       a =  9.000      CL =  1.0317
      Cm = -0.0067     CD =  0.01326   =>   CDf =  0.00589    CDp =  0.00737

 Side 1  free  transition at x/c =  0.0564   37
 Side 2  free  transition at x/c =  0.9988   67

   2   rms: 0.1083E-01   max: -.8705E-01   D at   37  1
       a =  9.000      CL =  1.0379
      Cm = -0.0070     CD =  0.01329   =>   CDf =  0.00606    CDp =  0.00722

 Side 1  free  transition at x/c =  0.0555   37
 Side 2  free  transition at x/c =  0.9991   67

   3   rms: 0.3608E-03   max: -.3096E-02   D at    4  1
       a =  9.000      CL =  1.0378
      Cm = -0.0070     CD =  0.01330   =>   CDf =  0.00607    CDp =  0.00723

 Side 1  free  transition at x/c =  0.0554   37
 Side 2  free  transition at x/c =  0.9991   67

   4   rms: 0.6803E-06   max: -.4421E-05   C at   37  1
       a =  9.000      CL =  1.0378
      Cm = -0.0070     CD =  0.01330   =>   CDf =  0.00607    CDp =  0.00723

 Point added to stored polar  1
 Point written to save file  polar_tmp.dat                                   
 Dump file unspecified or not available
 Calculating wake trajectory ...
 Calculating source influence matrix ...

 Solving BL system ...

 Side 1  free  transition at x/c =  0.0554   37
 Side 2  free  transition at x/c =  0.9991   67

   1   rms: 0.4432E-01   max: -.1952E+00   D at   37  1
       a =  9.250      CL =  1.0705
      Cm = -0.0082     CD =  0.01367   =>   CDf =  0.00607    CDp =  0.00760

 Side 1  free  transition at x/c =  0.0511   37
 Side 2 forced transition at x/c =  1.0000   67

   2   rms: 0.7405E-02   max: -.6263E-01   D at   67  2
       a =  9.250      CL =  1.0646
      Cm = -0.0071     CD =  0.01372   =>   CDf =  0.00611    CDp =  0.00761

 Side 1  free  transition at x/c =  0.0515   37
 Side 2 forced transition at x/c =  1.0000   67

   3   rms: 0.1645E-03   max: -.2302E-02   D at   37  1
       a =  9.250      CL =  1.0645
      Cm = -0.0071     CD =  0.01372   =>   CDf =  0.00610    CDp =  0.00761

 Side 1  free  transition at x/c =  0.0515   37
 Side 2 forced transition at x/c =  1.0000   67

   4   rms: 0.1211E-05   max: -.9765E-05   D at   37  1
       a =  9.250      CL =  1.0645
      Cm = -0.0071     CD =  0.01372   =>   CDf =  0.00610    CDp =  0.00761

 Point added to stored polar  1
 Point written to save file  polar_tmp.dat                                   
 Dump file unspecified or not available
 Calculating wake trajectory ...
 Calculating source influence matrix ...

 Solving BL system ...

 Side 1  free  transition at x/c =  0.0515   37
 Side 2 forced transition at x/c =  1.0000   67

   1   rms: 0.3964E-01   max: -.2035E+00   D at   37  1
       a =  9.500      CL =  1.0785
      Cm = -0.0046     CD =  0.01416   =>   CDf =  0.00610    CDp =  0.00805

 Side 1  free  transition at x/c =  0.0491   36
 Side 2 forced transition at x/c =  1.0000   67

   2   rms: 0.1259E-01   max: -.1512E+00   D at   36  1
       a =  9.500      CL =  1.0803
      Cm = -0.0048     CD =  0.01400   =>   CDf =  0.00608    CDp =  0.00792

 Side 1  free  transition at x/c =  0.0494   36
 Side 2 forced transition at x/c =  1.0000   67

   3   rms: 0.7157E-03   max: 0.1036E-01   C at   36  1
       a =  9.500      CL =  1.0801
      Cm = -0.0048     CD =  0.01402   =>   CDf =  0.00609    CDp =  0.00793

 Side 1  free  transition at x/c =  0.0493   36
 Side 2 forced transition at x/c =  1.0000   67

   4   rms: 0.2964E-05   max: -.3835E-04   D at   36  1
       a =  9.500      CL =  1.0801
      Cm = -0.0048     CD =  0.01402   =>   CDf =  0.00609    CDp =  0.00792

 Point added to stored polar  1
 Point written to save file  polar_tmp.dat                                   
 Dump file unspecified or not available
 Calculating wake trajectory ...
 Calculating source influence matrix ...

 Solving BL system ...

 Side 1  free  transition at x/c =  0.0493   36
 Side 2 forced transition at x/c =  1.0000   67

   1   rms: 0.3503E-01   max: -.1242E+00   D at   63  2
       a =  9.750      CL =  1.0963
      Cm = -0.0027     CD =  0.01430   =>   CDf =  0.00592    CDp =  0.00838

 Side 1  free  transition at x/c =  0.0474   37
 Side 2 forced transition at x/c =  1.0000   66

   2   rms: 0.2544E-02   max: -.2620E-01   D at    3  1
       a =  9.750      CL =  1.0957
      Cm = -0.0026     CD =  0.01431   =>   CDf =  0.00608    CDp =  0.00823

 Side 1  free  transition at x/c =  0.0475   37
 Side 2 forced transition at x/c =  1.0000   66

   3   rms: 0.3615E-03   max: -.3999E-02   D at    4  1
       a =  9.750      CL =  1.0957
      Cm = -0.0026     CD =  0.01431   =>   CDf =  0.00608    CDp =  0.00823

 Side 1  free  transition at x/c =  0.0475   37
 Side 2 forced transition at x/c =  1.0000   66

   4   rms: 0.6659E-06   max: 0.3453E-05   D at    8  1
       a =  9.750      CL =  1.0957
      Cm = -0.0026     CD =  0.01431   =>   CDf =  0.00608    CDp =  0.00823

 Point added to stored polar  1
 Point written to save file  polar_tmp.dat                                   
 Dump file unspecified or not available
 Calculating wake trajectory ...
 Calculating source influence matrix ...

 Solving BL system ...

 Side 1  free  transition at x/c =  0.0475   37
 Side 2 forced transition at x/c =  1.0000   66

   1   rms: 0.3567E-01   max: -.1281E+00   D at   63  2
       a = 10.000      CL =  1.1108
      Cm = -0.0002     CD =  0.01466   =>   CDf =  0.00608    CDp =  0.00857

 Side 1  free  transition at x/c =  0.0458   37
 Side 2 forced transition at x/c =  1.0000   66

   2   rms: 0.1494E-02   max: 0.1461E-01   D at   61  2
       a = 10.000      CL =  1.1102
      Cm = -0.0001     CD =  0.01467   =>   CDf =  0.00609    CDp =  0.00859

 Side 1  free  transition at x/c =  0.0458   37
 Side 2 forced transition at x/c =  1.0000   66

   3   rms: 0.3676E-04   max: 0.3698E-03   D at   61  2
       a = 10.000      CL =  1.1102
      Cm = -0.0001     CD =  0.01468   =>   CDf =  0.00609    CDp =  0.00859

 Point added to stored polar  1
 Point written to save file  polar_tmp.dat                                   
 Dump file unspecified or not available
 Calculating wake trajectory ...
 Calculating source influence matrix ...

 Solving BL system ...

 Side 1  free  transition at x/c =  0.0458   37
 Side 2 forced transition at x/c =  1.0000   66

   1   rms: 0.3636E-01   max: -.1349E+00   D at   66  2
       a = 10.250      CL =  1.1240
      Cm =  0.0024     CD =  0.01510   =>   CDf =  0.00609    CDp =  0.00901

 Side 1  free  transition at x/c =  0.0442   36
 Side 2 forced transition at x/c =  1.0000   66

   2   rms: 0.2961E-02   max: -.3849E-01   D at   37  1
       a = 10.250      CL =  1.1237
      Cm =  0.0025     CD =  0.01510   =>   CDf =  0.00608    CDp =  0.00902

 Side 1  free  transition at x/c =  0.0441   36
 Side 2 forced transition at x/c =  1.0000   66

   3   rms: 0.4155E-04   max: 0.3519E-03   D at   62  2
       a = 10.250      CL =  1.1237
      Cm =  0.0025     CD =  0.01510   =>   CDf =  0.00608    CDp =  0.00902

 Point added to stored polar  1
 Point written to save file  polar_tmp.dat                                   
 Dump file unspecified or not available
 Calculating wake trajectory ...
 Calculating source influence matrix ...

 Solving BL system ...

 Side 1  free  transition at x/c =  0.0441   36
 Side 2 forced transition at x/c =  1.0000   66

   1   rms: 0.3380E-01   max: -.1404E+00   C at   66  2
       a = 10.500      CL =  1.1404
      Cm =  0.0045     CD =  0.01538   =>   CDf =  0.00608    CDp =  0.00930

 Side 1  free  transition at x/c =  0.0433   36
 Side 2 forced transition at x/c =  1.0000   66

   2   rms: 0.1407E-02   max: 0.1353E-01   C at   66  2
       a = 10.500      CL =  1.1402
      Cm =  0.0045     CD =  0.01540   =>   CDf =  0.00605    CDp =  0.00934

 Side 1  free  transition at x/c =  0.0433   36
 Side 2 forced transition at x/c =  1.0000   66

   3   rms: 0.2893E-04   max: 0.3195E-03   C at   66  2
       a = 10.500      CL =  1.1402
      Cm =  0.0045     CD =  0.01540   =>   CDf =  0.00605    CDp =  0.00934

 Point added to stored polar  1
 Point written to save file  polar_tmp.dat                                   
 Dump file unspecified or not available
 Calculating wake trajectory ...
 Calculating source influence matrix ...

 Solving BL system ...

 Side 1  free  transition at x/c =  0.0433   36
 Side 2 forced transition at x/c =  1.0000   66

   1   rms: 0.3367E-01   max: -.1607E+00   C at   66  2
       a = 10.750      CL =  1.1567
      Cm =  0.0066     CD =  0.01572   =>   CDf =  0.00585    CDp =  0.00988

 Side 1  free  transition at x/c =  0.0423   37
 Side 2 forced transition at x/c =  1.0000   65

   2   rms: 0.2578E-02   max: -.2767E-01   D at    3  1
       a = 10.750      CL =  1.1566
      Cm =  0.0066     CD =  0.01573   =>   CDf =  0.00602    CDp =  0.00971

 Side 1  free  transition at x/c =  0.0423   37
 Side 2 forced transition at x/c =  1.0000   65

   3   rms: 0.3343E-03   max: -.3690E-02   D at    4  1
       a = 10.750      CL =  1.1566
      Cm =  0.0066     CD =  0.01573   =>   CDf =  0.00602    CDp =  0.00971

 Side 1  free  transition at x/c =  0.0423   37
 Side 2 forced transition at x/c =  1.0000   65

   4   rms: 0.6441E-06   max: 0.5306E-05   D at   96  1
       a = 10.750      CL =  1.1566
      Cm =  0.0066     CD =  0.01573   =>   CDf =  0.00602    CDp =  0.00971

 Point added to stored polar  1
 Point written to save file  polar_tmp.dat                                   
 Dump file unspecified or not available
 Calculating wake trajectory ...
 Calculating source influence matrix ...

 Solving BL system ...

 Side 1  free  transition at x/c =  0.0423   37
 Side 2 forced transition at x/c =  1.0000   65

   1   rms: 0.3386E-01   max: -.1772E+00   C at   65  2
       a = 11.000      CL =  1.1731
      Cm =  0.0086     CD =  0.01609   =>   CDf =  0.00602    CDp =  0.01007

 Side 1  free  transition at x/c =  0.0413   37
 Side 2 forced transition at x/c =  1.0000   65

   2   rms: 0.1802E-02   max: -.1812E-01   D at   37  1
       a = 11.000      CL =  1.1726
      Cm =  0.0086     CD =  0.01610   =>   CDf =  0.00601    CDp =  0.01010

 Side 1  free  transition at x/c =  0.0413   37
 Side 2 forced transition at x/c =  1.0000   65

   3   rms: 0.2027E-04   max: 0.3115E-03   C at   65  2
       a = 11.000      CL =  1.1726
      Cm =  0.0086     CD =  0.01610   =>   CDf =  0.00601    CDp =  0.01010

 Point added to stored polar  1
 Point written to save file  polar_tmp.dat                                   
 Dump file unspecified or not available
 Calculating wake trajectory ...
 Calculating source influence matrix ...

 Solving BL system ...

 Side 1  free  transition at x/c =  0.0413   37
 Side 2 forced transition at x/c =  1.0000   65

   1   rms: 0.3427E-01   max: -.1981E+00   C at   65  2
       a = 11.250      CL =  1.1887
      Cm =  0.0106     CD =  0.01652   =>   CDf =  0.00601    CDp =  0.01051

 Side 1  free  transition at x/c =  0.0403   37
 Side 2 forced transition at x/c =  1.0000   65

   2   rms: 0.1744E-02   max: 0.2968E-01   C at   65  2
       a = 11.250      CL =  1.1884
      Cm =  0.0106     CD =  0.01654   =>   CDf =  0.00600    CDp =  0.01054

 Side 1  free  transition at x/c =  0.0403   37
 Side 2 forced transition at x/c =  1.0000   65

   3   rms: 0.4477E-04   max: 0.8719E-03   C at   65  2
       a = 11.250      CL =  1.1884
      Cm =  0.0106     CD =  0.01654   =>   CDf =  0.00600    CDp =  0.01054

 Point added to stored polar  1
 Point written to save file  polar_tmp.dat                                   
 Dump file unspecified or not available
 Calculating wake trajectory ...
 Calculating source influence matrix ...

 Solving BL system ...

 Side 1  free  transition at x/c =  0.0403   37
 Side 2 forced transition at x/c =  1.0000   65

   1   rms: 0.3491E-01   max: -.1941E+00   C at   65  2
       a = 11.500      CL =  1.2039
      Cm =  0.0126     CD =  0.01705   =>   CDf =  0.00600    CDp =  0.01105

 Side 1  free  transition at x/c =  0.0393   37
 Side 2 forced transition at x/c =  1.0000   65

   2   rms: 0.2803E-02   max: -.2083E-01   D at   37  1
       a = 11.500      CL =  1.2027
      Cm =  0.0128     CD =  0.01712   =>   CDf =  0.00598    CDp =  0.01113

 Side 1  free  transition at x/c =  0.0392   37
 Side 2 forced transition at x/c =  1.0000   65

   3   rms: 0.1141E-03   max: -.1033E-02   D at   37  1
       a = 11.500      CL =  1.2026
      Cm =  0.0128     CD =  0.01712   =>   CDf =  0.00599    CDp =  0.01113

 Side 1  free  transition at x/c =  0.0392   37
 Side 2 forced transition at x/c =  1.0000   65

   4   rms: 0.1828E-05   max: -.1176E-04   D at    4  2
       a = 11.500      CL =  1.2026
      Cm =  0.0128     CD =  0.01712   =>   CDf =  0.00599    CDp =  0.01113

 Point added to stored polar  1
 Point written to save file  polar_tmp.dat                                   
 Dump file unspecified or not available
 Calculating wake trajectory ...
 Calculating source influence matrix ...

 Solving BL system ...

 Side 1  free  transition at x/c =  0.0392   37
 Side 2 forced transition at x/c =  1.0000   65

   1   rms: 0.3659E-01   max: -.2004E+00   C at   65  2
       a = 11.750      CL =  1.2157
      Cm =  0.0150     CD =  0.01781   =>   CDf =  0.00575    CDp =  0.01206

 Side 1  free  transition at x/c =  0.0384   37
 Side 2 forced transition at x/c =  1.0000   64

   2   rms: 0.1095E-01   max: -.1101E+00   D at   37  1
       a = 11.750      CL =  1.2181
      Cm =  0.0147     CD =  0.01763   =>   CDf =  0.00592    CDp =  0.01170

 Side 1  free  transition at x/c =  0.0385   37
 Side 2 forced transition at x/c =  1.0000   64

   3   rms: 0.3167E-03   max: -.2993E-02   D at    4  1
       a = 11.750      CL =  1.2182
      Cm =  0.0147     CD =  0.01764   =>   CDf =  0.00594    CDp =  0.01170

 Side 1  free  transition at x/c =  0.0385   37
 Side 2 forced transition at x/c =  1.0000   64

[...]

 Side 1 forced transition at x/c =  1.0000   59
 Side 2  free  transition at x/c =  0.0240   39

   5   rms: 0.4951E-04   max: 0.3428E-03   D at  119  2
       a =-22.500      CL = -1.2108
      Cm =  0.0161     CD =  0.15393   =>   CDf =  0.00284    CDp =  0.15108

 Point added to stored polar  1
 Point written to save file  polar_tmp.dat                                   
 Dump file unspecified or not available
 Calculating wake trajectory ...
 Calculating source influence matrix ...

 Solving BL system ...

 Side 1 forced transition at x/c =  1.0000   59
 Side 2  free  transition at x/c =  0.0240   39

   1   rms: 0.2960E-01   max: 0.1853E+00   D at   54  2   RLX: 0.326
       a =-22.750      CL = -1.2089
      Cm =  0.0174     CD =  0.15650   =>   CDf =  0.00285    CDp =  0.15365

 Side 1 forced transition at x/c =  1.0000   59
 Side 2  free  transition at x/c =  0.0239   39

   2   rms: 0.1757E-01   max: 0.1065E+00   D at   54  2
       a =-22.750      CL = -1.2071
      Cm =  0.0196     CD =  0.16058   =>   CDf =  0.00282    CDp =  0.15776

 Side 1 forced transition at x/c =  1.0000   59
 Side 2  free  transition at x/c =  0.0237   39

   3   rms: 0.3111E-02   max: 0.1535E-01   D at  123  2
       a =-22.750      CL = -1.2051
      Cm =  0.0195     CD =  0.15924   =>   CDf =  0.00278    CDp =  0.15646

 Side 1 forced transition at x/c =  1.0000   59
 Side 2  free  transition at x/c =  0.0237   39

   4   rms: 0.2194E-03   max: 0.2393E-02   D at  121  2
       a =-22.750      CL = -1.2050
      Cm =  0.0194     CD =  0.15896   =>   CDf =  0.00278    CDp =  0.15618

 Side 1 forced transition at x/c =  1.0000   59
 Side 2  free  transition at x/c =  0.0237   39

   5   rms: 0.6024E-05   max: 0.8791E-04   D at  121  2
       a =-22.750      CL = -1.2050
      Cm =  0.0194     CD =  0.15895   =>   CDf =  0.00278    CDp =  0.15617

 Point added to stored polar  1
 Point written to save file  polar_tmp.dat                                   
 Dump file unspecified or not available
 Calculating wake trajectory ...
 Calculating source influence matrix ...

 Solving BL system ...

 Side 1 forced transition at x/c =  1.0000   59
 Side 2  free  transition at x/c =  0.0237   39

   1   rms: 0.2488E-01   max: 0.1493E+00   D at   54  2   RLX: 0.320
       a =-23.000      CL = -1.2042
      Cm =  0.0205     CD =  0.16115   =>   CDf =  0.00278    CDp =  0.15837

 Side 1 forced transition at x/c =  1.0000   59
 Side 2  free  transition at x/c =  0.0236   39

   2   rms: 0.2038E-01   max: 0.1280E+00   D at   54  2
       a =-23.000      CL = -1.2008
      Cm =  0.0232     CD =  0.16605   =>   CDf =  0.00276    CDp =  0.16329

 Side 1 forced transition at x/c =  1.0000   59
 Side 2  free  transition at x/c =  0.0233   39

   3   rms: 0.4228E-02   max: 0.1855E-01   D at   54  2
       a =-23.000      CL = -1.1981
      Cm =  0.0231     CD =  0.16466   =>   CDf =  0.00271    CDp =  0.16195

 Side 1 forced transition at x/c =  1.0000   59
 Side 2  free  transition at x/c =  0.0234   39

   4   rms: 0.3187E-03   max: 0.3013E-02   D at  121  2
       a =-23.000      CL = -1.1979
      Cm =  0.0230     CD =  0.16427   =>   CDf =  0.00271    CDp =  0.16156

 Side 1 forced transition at x/c =  1.0000   59
 Side 2  free  transition at x/c =  0.0234   39

   5   rms: 0.1173E-04   max: 0.1057E-03   D at  121  2
       a =-23.000      CL = -1.1979
      Cm =  0.0230     CD =  0.16425   =>   CDf =  0.00271    CDp =  0.16154

 Point added to stored polar  1
 Point written to save file  polar_tmp.dat                                   
 Dump file unspecified or not available
 Calculating wake trajectory ...
 Calculating source influence matrix ...

 Solving BL system ...

 Side 1 forced transition at x/c =  1.0000   59
 Side 2  free  transition at x/c =  0.0234   39

   1   rms: 0.2488E-01   max: 0.1530E+00   D at   53  2   RLX: 0.313
       a =-23.250      CL = -1.1972
      Cm =  0.0241     CD =  0.16645   =>   CDf =  0.00272    CDp =  0.16373

 Side 1 forced transition at x/c =  1.0000   59
 Side 2  free  transition at x/c =  0.0232   39

   2   rms: 0.1660E-01   max: 0.9969E-01   D at   53  2
       a =-23.250      CL = -1.1966
      Cm =  0.0264     CD =  0.17055   =>   CDf =  0.00270    CDp =  0.16785

 Side 1 forced transition at x/c =  1.0000   59
 Side 2  free  transition at x/c =  0.0230   39

   3   rms: 0.3064E-02   max: 0.1429E-01   D at  123  2
       a =-23.250      CL = -1.1946
      Cm =  0.0262     CD =  0.16914   =>   CDf =  0.00267    CDp =  0.16648

 Side 1 forced transition at x/c =  1.0000   59
 Side 2  free  transition at x/c =  0.0230   39

   4   rms: 0.1832E-03   max: 0.1568E-02   D at  121  2
       a =-23.250      CL = -1.1945
      Cm =  0.0262     CD =  0.16884   =>   CDf =  0.00267    CDp =  0.16617

 Side 1 forced transition at x/c =  1.0000   59
 Side 2  free  transition at x/c =  0.0230   39

   5   rms: 0.7856E-05   max: 0.5210E-04   C at   59  1
       a =-23.250      CL = -1.1945
      Cm =  0.0262     CD =  0.16883   =>   CDf =  0.00267    CDp =  0.16617

 Point added to stored polar  1
 Point written to save file  polar_tmp.dat                                   
 Dump file unspecified or not available
 Calculating wake trajectory ...
 Calculating source influence matrix ...

 Solving BL system ...

 Side 1 forced transition at x/c =  1.0000   59
 Side 2  free  transition at x/c =  0.0230   39

   1   rms: 0.2330E-01   max: 0.1372E+00   D at   52  2   RLX: 0.307
       a =-23.500      CL = -1.1942
      Cm =  0.0272     CD =  0.17085   =>   CDf =  0.00267    CDp =  0.16818

 Side 1 forced transition at x/c =  1.0000   59
 Side 2  free  transition at x/c =  0.0229   39

   2   rms: 0.2190E-01   max: 0.1417E+00   D at   53  2
       a =-23.500      CL = -1.1908
      Cm =  0.0301     CD =  0.17623   =>   CDf =  0.00266    CDp =  0.17357

 Side 1 forced transition at x/c =  1.0000   59
 Side 2  free  transition at x/c =  0.0227   39

   3   rms: 0.3270E-02   max: 0.1774E-01   D at  123  2
       a =-23.500      CL = -1.1892
      Cm =  0.0298     CD =  0.17424   =>   CDf =  0.00262    CDp =  0.17162

 Side 1 forced transition at x/c =  1.0000   59
 Side 2  free  transition at x/c =  0.0227   39

   4   rms: 0.2740E-03   max: 0.1128E-02   D at  120  2
       a =-23.500      CL = -1.1893
      Cm =  0.0298     CD =  0.17383   =>   CDf =  0.00262    CDp =  0.17121

 Side 1 forced transition at x/c =  1.0000   59
 Side 2  free  transition at x/c =  0.0227   39

   5   rms: 0.5336E-04   max: -.2840E-03   D at  123  2
       a =-23.500      CL = -1.1893
      Cm =  0.0298     CD =  0.17386   =>   CDf =  0.00262    CDp =  0.17124

 Point added to stored polar  1
 Point written to save file  polar_tmp.dat                                   
 Dump file unspecified or not available
 Calculating wake trajectory ...
 Calculating source influence matrix ...

 Solving BL system ...

 Side 1 forced transition at x/c =  1.0000   59
 Side 2  free  transition at x/c =  0.0227   39

   1   rms: 0.2323E-01   max: 0.1381E+00   D at   52  2   RLX: 0.301
       a =-23.750      CL = -1.1890
      Cm =  0.0308     CD =  0.17586   =>   CDf =  0.00263    CDp =  0.17324

 Side 1 forced transition at x/c =  1.0000   59
 Side 2  free  transition at x/c =  0.0226   39

   2   rms: 0.1575E-01   max: 0.9033E-01   D at   52  2
       a =-23.750      CL = -1.1898
      Cm =  0.0330     CD =  0.17976   =>   CDf =  0.00262    CDp =  0.17715

 Side 1 forced transition at x/c =  1.0000   59
 Side 2  free  transition at x/c =  0.0224   39

   3   rms: 0.2736E-02   max: 0.1404E-01   D at  123  2
       a =-23.750      CL = -1.1881
      Cm =  0.0328     CD =  0.17837   =>   CDf =  0.00260    CDp =  0.17578

 Side 1 forced transition at x/c =  1.0000   59
 Side 2  free  transition at x/c =  0.0224   39

   4   rms: 0.1919E-03   max: 0.1410E-02   D at  120  2
       a =-23.750      CL = -1.1880
      Cm =  0.0328     CD =  0.17806   =>   CDf =  0.00260    CDp =  0.17546

 Side 1 forced transition at x/c =  1.0000   59
 Side 2  free  transition at x/c =  0.0224   39

   5   rms: 0.4860E-05   max: -.2155E-04   D at  105  2
       a =-23.750      CL = -1.1880
      Cm =  0.0328     CD =  0.17806   =>   CDf =  0.00260    CDp =  0.17546

 Point added to stored polar  1
 Point written to save file  polar_tmp.dat                                   
 Dump file unspecified or not available
 Calculating wake trajectory ...
 Calculating source influence matrix ...

 Solving BL system ...

 Side 1 forced transition at x/c =  1.0000   59
 Side 2  free  transition at x/c =  0.0224   39

   1   rms: 0.2101E-01   max: 0.1089E+00   D at   51  2   RLX: 0.296
       a =-24.000      CL = -1.1882
      Cm =  0.0337     CD =  0.17980   =>   CDf =  0.00260    CDp =  0.17719

 Side 1 forced transition at x/c =  1.0000   59
 Side 2  free  transition at x/c =  0.0222   39

   2   rms: 0.1438E-01   max: 0.6671E-01   D at   51  2
       a =-24.000      CL = -1.1905
      Cm =  0.0357     CD =  0.18318   =>   CDf =  0.00260    CDp =  0.18058

 Side 1 forced transition at x/c =  1.0000   59
 Side 2  free  transition at x/c =  0.0219   39

   3   rms: 0.3204E-02   max: 0.1448E-01   T at   39  2
       a =-24.000      CL = -1.1889
      Cm =  0.0355     CD =  0.18181   =>   CDf =  0.00259    CDp =  0.17922

 Side 1 forced transition at x/c =  1.0000   59
 Side 2  free  transition at x/c =  0.0219   39

   4   rms: 0.1979E-03   max: 0.1032E-02   T at   39  2
       a =-24.000      CL = -1.1888
      Cm =  0.0355     CD =  0.18160   =>   CDf =  0.00260    CDp =  0.17900

 Side 1 forced transition at x/c =  1.0000   59
 Side 2  free  transition at x/c =  0.0219   39

   5   rms: 0.5732E-04   max: 0.3700E-03   D at   52  2
       a =-24.000      CL = -1.1888
      Cm =  0.0355     CD =  0.18163   =>   CDf =  0.00260    CDp =  0.17903

 Point added to stored polar  1
 Point written to save file  polar_tmp.dat                                   
 Dump file unspecified or not available
 Calculating wake trajectory ...
 Calculating source influence matrix ...

 Solving BL system ...

 Side 1 forced transition at x/c =  1.0000   59
 Side 2  free  transition at x/c =  0.0219   39

   1   rms: 0.2579E-01   max: 0.1489E+00   T at   39  2   RLX: 0.291
       a =-24.250      CL = -1.1889
      Cm =  0.0363     CD =  0.18323   =>   CDf =  0.00260    CDp =  0.18063

 Side 1 forced transition at x/c =  1.0000   59
 Side 2  free  transition at x/c =  0.0217   38

   2   rms: 0.3684E-01   max: 0.2326E+00   D at   52  2
       a =-24.250      CL = -1.1801
      Cm =  0.0408     CD =  0.19186   =>   CDf =  0.00259    CDp =  0.18928

 Side 1 forced transition at x/c =  1.0000   59
 Side 2  free  transition at x/c =  0.0216   38

   3   rms: 0.4844E-02   max: -.3149E-01   D at   50  2
       a =-24.250      CL = -1.1781
      Cm =  0.0403     CD =  0.18860   =>   CDf =  0.00249    CDp =  0.18611

 Side 1 forced transition at x/c =  1.0000   59
 Side 2  free  transition at x/c =  0.0216   38

   4   rms: 0.4918E-03   max: 0.2911E-02   D at   51  2
       a =-24.250      CL = -1.1779
      Cm =  0.0403     CD =  0.18805   =>   CDf =  0.00249    CDp =  0.18555

 Side 1 forced transition at x/c =  1.0000   59
 Side 2  free  transition at x/c =  0.0216   38

   5   rms: 0.3700E-04   max: 0.2775E-03   D at    2  1
       a =-24.250      CL = -1.1779
      Cm =  0.0403     CD =  0.18807   =>   CDf =  0.00249    CDp =  0.18557

 Point added to stored polar  1
 Point written to save file  polar_tmp.dat                                   
 Dump file unspecified or not available
 Calculating wake trajectory ...
 Calculating source influence matrix ...

 Solving BL system ...

 Side 1 forced transition at x/c =  1.0000   59
 Side 2  free  transition at x/c =  0.0216   38

   1   rms: 0.3946E-01   max: 0.2489E+00   D at   51  2   RLX: 0.283
       a =-24.500      CL = -1.1754
      Cm =  0.0418     CD =  0.19102   =>   CDf =  0.00250    CDp =  0.18852

 Side 1 forced transition at x/c =  1.0000   59
 Side 2  free  transition at x/c =  0.0215   38

   2   rms: 0.3208E-01   max: 0.1990E+00   D at   51  2
       a =-24.500      CL = -1.1688
      Cm =  0.0457     CD =  0.19843   =>   CDf =  0.00246    CDp =  0.19597

 Side 1 forced transition at x/c =  1.0000   59
 Side 2  free  transition at x/c =  0.0212   38

   3   rms: 0.1514E-01   max: 0.1034E+00   D at   51  2
       a =-24.500      CL = -1.1618
      Cm =  0.0464     CD =  0.19751   =>   CDf =  0.00238    CDp =  0.19514

 Side 1 forced transition at x/c =  1.0000   59
 Side 2  free  transition at x/c =  0.0212   38

   4   rms: 0.1569E-02   max: -.1159E-01   D at   51  2
       a =-24.500      CL = -1.1616
      Cm =  0.0462     CD =  0.19613   =>   CDf =  0.00236    CDp =  0.19377

 Side 1 forced transition at x/c =  1.0000   59
 Side 2  free  transition at x/c =  0.0212   38

   5   rms: 0.1518E-03   max: 0.9621E-03   D at  122  2
       a =-24.500      CL = -1.1616
      Cm =  0.0461     CD =  0.19594   =>   CDf =  0.00236    CDp =  0.19358

 Side 1 forced transition at x/c =  1.0000   59
 Side 2  free  transition at x/c =  0.0212   38

   6   rms: 0.2278E-04   max: -.1333E-03   D at  120  2
       a =-24.500      CL = -1.1616
      Cm =  0.0461     CD =  0.19597   =>   CDf =  0.00236    CDp =  0.19361

 Point added to stored polar  1
 Point written to save file  polar_tmp.dat                                   
 Dump file unspecified or not available
 Calculating wake trajectory ...
 Calculating source influence matrix ...

 Solving BL system ...

 Side 1 forced transition at x/c =  1.0000   59
 Side 2  free  transition at x/c =  0.0212   38

   1   rms: 0.4711E-01   max: 0.2932E+00   D at   50  2   RLX: 0.276
       a =-24.750      CL = -1.1584
      Cm =  0.0478     CD =  0.19927   =>   CDf =  0.00236    CDp =  0.19691

 Side 1 forced transition at x/c =  1.0000   59
 Side 2  free  transition at x/c =  0.0211   38

   2   rms: 0.3983E-01   max: 0.2427E+00   D at   50  2
       a =-24.750      CL = -1.1496
      Cm =  0.0523     CD =  0.20806   =>   CDf =  0.00233    CDp =  0.20574

 Side 1 forced transition at x/c =  1.0000   59
 Side 2  free  transition at x/c =  0.0208   38

   3   rms: 0.2091E-01   max: 0.1357E+00   D at   50  2
       a =-24.750      CL = -1.1408
      Cm =  0.0533     CD =  0.20733   =>   CDf =  0.00224    CDp =  0.20509

 Side 1 forced transition at x/c =  1.0000   59
 Side 2  free  transition at x/c =  0.0207   38

   4   rms: 0.1899E-02   max: 0.1164E-01   D at  124  2
       a =-24.750      CL = -1.1400
      Cm =  0.0531     CD =  0.20566   =>   CDf =  0.00221    CDp =  0.20345

 Side 1 forced transition at x/c =  1.0000   59
 Side 2  free  transition at x/c =  0.0207   38

   5   rms: 0.1723E-03   max: 0.1339E-02   D at  122  2
       a =-24.750      CL = -1.1400
      Cm =  0.0531     CD =  0.20531   =>   CDf =  0.00221    CDp =  0.20310

 Side 1 forced transition at x/c =  1.0000   59
 Side 2  free  transition at x/c =  0.0207   38

   6   rms: 0.1358E-04   max: -.6197E-04   D at  123  2
       a =-24.750      CL = -1.1400
      Cm =  0.0531     CD =  0.20532   =>   CDf =  0.00221    CDp =  0.20310

 Point added to stored polar  1
 Point written to save file  polar_tmp.dat                                   
 Dump file unspecified or not available
 Calculating wake trajectory ...
 Calculating source influence matrix ...

 Solving BL system ...

 Side 1 forced transition at x/c =  1.0000   59
 Side 2  free  transition at x/c =  0.0207   38

   1   rms: 0.6435E-01   max: 0.3939E+00   D at   48  2   RLX: 0.268
       a =-25.000      CL = -1.1356
      Cm =  0.0550     CD =  0.20943   =>   CDf =  0.00222    CDp =  0.20721

 Side 1 forced transition at x/c =  1.0000   59
 Side 2  free  transition at x/c =  0.0206   38

   2   rms: 0.2166E+00   max: 0.1185E+01   D at   48  2
       a =-25.000      CL = -1.0744
      Cm =  0.0718     CD =  0.25054   =>   CDf =  0.00218    CDp =  0.24836
Note: The following floating-point exceptions are signalling: IEEE_DIVIDE_BY_ZERO IEEE_UNDERFLOW_FLAG IEEE_DENORMAL

 MRCHDU: Convergence failed at  46  side 2    Res =  0.1673E+01
 MRCHDU: Convergence failed at  47  side 2    Res =  0.3111E+01
 MRCHDU: Convergence failed at  48  side 2    Res =  0.3147E+01
 Side 1 forced transition at x/c =  1.0000   59
 Side 2  free  transition at x/c =  0.0196   38

   3   rms: 0.1474E+00   max: -.5940E+00   D at   45  2   RLX: 0.842
       a =-25.000      CL = -1.1259
      Cm =  0.0666     CD =  0.21005   =>   CDf =  0.00197    CDp =  0.20808

 Side 1 forced transition at x/c =  1.0000   59
 Side 2  free  transition at x/c =  0.0202   38

   4   rms: 0.5618E-01   max: -.3871E+00   D at   45  2
       a =-25.000      CL = -1.1246
      Cm =  0.0580     CD =  0.20692   =>   CDf =  0.00206    CDp =  0.20486

 Side 1 forced transition at x/c =  1.0000   59
 Side 2  free  transition at x/c =  0.0203   38

   5   rms: 0.3954E-01   max: 0.2614E+00   D at   48  2
       a =-25.000      CL = -1.1151
      Cm =  0.0612     CD =  0.21753   =>   CDf =  0.00213    CDp =  0.21540

 Side 1 forced transition at x/c =  1.0000   59
 Side 2  free  transition at x/c =  0.0200   38

   6   rms: 0.4368E+00   max: -.2322E+01   D at   47  2   RLX: 0.215
       a =-25.000      CL = -1.1456
      Cm =  0.0550     CD =  0.20028   =>   CDf =  0.00207    CDp =  0.19821

 Side 1 forced transition at x/c =  1.0000   59
 Side 2  free  transition at x/c =  0.0206   38

   7   rms: 0.5967E-01   max: 0.3794E+00   D at   49  2
       a =-25.000      CL = -1.1274
      Cm =  0.0591     CD =  0.21505   =>   CDf =  0.00220    CDp =  0.21285

 Side 1 forced transition at x/c =  1.0000   59
 Side 2  free  transition at x/c =  0.0201   38

   8   rms: 0.4450E-01   max: 0.2707E+00   D at   49  2
       a =-25.000      CL = -1.1131
      Cm =  0.0620     CD =  0.22147   =>   CDf =  0.00211    CDp =  0.21936

 Side 1 forced transition at x/c =  1.0000   59
 Side 2  free  transition at x/c =  0.0199   38

   9   rms: 0.1540E+00   max: 0.8233E+00   D at   48  2
       a =-25.000      CL = -1.0677
      Cm =  0.0719     CD =  0.24484   =>   CDf =  0.00206    CDp =  0.24278

 Side 1 forced transition at x/c =  1.0000   59
 Side 2  free  transition at x/c =  0.0192   38

  10   rms: 0.3796E-01   max: -.2317E+00   D at   48  2
       a =-25.000      CL = -1.0753
      Cm =  0.0680     CD =  0.22773   =>   CDf =  0.00193    CDp =  0.22580

 Side 1 forced transition at x/c =  1.0000   59
 Side 2  free  transition at x/c =  0.0194   38

  11   rms: 0.1764E-01   max: -.1121E+00   D at   44  2
       a =-25.000      CL = -1.0809
      Cm =  0.0668     CD =  0.22274   =>   CDf =  0.00196    CDp =  0.22078

 Side 1 forced transition at x/c =  1.0000   59
 Side 2  free  transition at x/c =  0.0195   38

  12   rms: 0.2255E-02   max: -.1247E-01   D at  124  2
       a =-25.000      CL = -1.0820
      Cm =  0.0669     CD =  0.22433   =>   CDf =  0.00197    CDp =  0.22236

 Side 1 forced transition at x/c =  1.0000   59
 Side 2  free  transition at x/c =  0.0195   38

  13   rms: 0.4008E-03   max: -.2398E-02   D at  124  2
       a =-25.000      CL = -1.0822
      Cm =  0.0669     CD =  0.22479   =>   CDf =  0.00197    CDp =  0.22282

 Side 1 forced transition at x/c =  1.0000   59
 Side 2  free  transition at x/c =  0.0195   38

  14   rms: 0.1070E-03   max: -.4893E-03   D at   45  2
       a =-25.000      CL = -1.0823
      Cm =  0.0669     CD =  0.22481   =>   CDf =  0.00197    CDp =  0.22284

 Side 1 forced transition at x/c =  1.0000   59
 Side 2  free  transition at x/c =  0.0195   38

  15   rms: 0.1907E-04   max: -.7741E-04   D at  124  2
       a =-25.000      CL = -1.0823
      Cm =  0.0669     CD =  0.22482   =>   CDf =  0.00197    CDp =  0.22285

 Point added to stored polar  1
 Point written to save file  polar_tmp.dat                                   
 Dump file unspecified or not available

.OPERva   c>  
 Polar accumulation disabled

.OPERv   c>  
 XFOIL   c>  