
 ===================================================
  XFOIL Version 6.97
  Copyright (C) 2000   Mark Drela, Harold Youngren

  This software comes with ABSOLUTELY NO WARRANTY,
    subject to the GNU General Public License.

  Caveat computor
 ===================================================

 File  xfoil.def  not found

   QUIT    Exit program

  .OPER    Direct operating point(s)
  .MDES    Complex mapping design routine
  .QDES    Surface speed design routine
  .GDES    Geometry design routine

   SAVE f  Write airfoil to labeled coordinate file
   PSAV f  Write airfoil to plain coordinate file
   ISAV f  Write airfoil to ISES coordinate file
   MSAV f  Write airfoil to MSES coordinate file
   REVE    Reverse written-airfoil node ordering
   DELI i  Change written-airfoil file delimiters

   LOAD f  Read buffer airfoil from coordinate file
   NACA i  Set NACA 4,5-digit airfoil and buffer airfoil
   INTE    Set buffer airfoil by interpolating two airfoils
   NORM    Buffer airfoil normalization toggle
   HALF    Halve the number of points in buffer airfoil
   XYCM rr Change CM reference location, currently  0.25000 0.00000

   BEND    Display structural properties of current airfoil

   PCOP    Set current-airfoil panel nodes directly from buffer airfoil points
   PANE    Set current-airfoil panel nodes ( 160 ) based on curvature
  .PPAR    Show/change paneling

  .PLOP    Plotting options

   WDEF f  Write  current-settings file
   RDEF f  Reread current-settings file
   NAME s  Specify new airfoil name
   NINC    Increment name version number

   Z       Zoom    | (available in all menus)
   U       Unzoom  | 

 XFOIL   c>   ...............................................

  G raphics-enable flag:        T
  S ize of plot object          10.00"
  A spect ratio of plot object   0.5500
  P age dimensions              11.00 x  8.50"
  M argins from page edges       0.00",  0.00"
  F ont size (relative)          0.0150
  W indow/screen size fraction   0.8000
  B lowup input method:        Cursor    
  O rientation of plot:        Landscape 
  C olor PostScript output?     F

      Option, Value   (or <Return>)    c>   ...............................................

  G raphics-enable flag:        F
  S ize of plot object          10.00"
  A spect ratio of plot object   0.5500
  P age dimensions              11.00 x  8.50"
  M argins from page edges       0.00",  0.00"
  F ont size (relative)          0.0150
  W indow/screen size fraction   0.8000
  B lowup input method:        Cursor    
  O rientation of plot:        Landscape 
  C olor PostScript output?     F

      Option, Value   (or <Return>)    c>  
 XFOIL   c>  
 Labeled airfoil file.  Name:   NACA 0012 AIRFOILS                             

 Number of input coordinate points: 131
 Counterclockwise ordering
 Max thickness =     0.120034  at x =   0.300
 Max camber    =     0.000000  at x =   0.047

  LE  x,y  =   0.00000   0.00000  |   Chord =   1.00000
  TE  x,y  =   1.00000   0.00000  |

 Current airfoil nodes set from buffer airfoil nodes ( 131 )

 XFOIL   c>  
 Blunt trailing edge.  Gap =  0.00252

 Paneling parameters used...
   Number of panel nodes       160
   Panel bunching parameter    1.000
   TE/LE panel density ratio   0.150
   Refined-area/LE panel density ratio    0.200
   Top    side refined area x/c limits  1.000 1.000
   Bottom side refined area x/c limits  1.000 1.000

 XFOIL   c>  
.OPERi   c>  
.OPERi   c>  
 M  =    0.0000
 Re =  0.1000E+07

.OPERv   c>   Calculating unit vorticity distributions ...
 Calculating wake trajectory ...
 Calculating source influence matrix ...

 Solving BL system ...

 Initializing BL ...
    side            1  ...
 MRCHUE: Inverse mode at  49     Hk =   2.500
 MRCHUE: Inverse mode at  84     Hk =   2.500
    side            2  ...
 MRCHUE: Inverse mode at  62     Hk =   4.249
 MRCHUE: Inverse mode at  63     Hk =   5.019
 MRCHUE: Inverse mode at  64     Hk =   5.778
 MRCHUE: Inverse mode at  65     Hk =   3.734
 MRCHUE: Inverse mode at  66     Hk =   2.500

 Side 1  free  transition at x/c =  0.4292   49
 Side 2  free  transition at x/c =  0.7959   65

   1   rms: 0.1046E+00   max: -.9605E+00   C at   49  1   RLX: 0.521
       a =  2.000      CL =  0.2364
      Cm = -0.0025     CD =  0.00568   =>   CDf =  0.00491    CDp =  0.00077

 Side 1  free  transition at x/c =  0.4409   50
 Side 2  free  transition at x/c =  0.8079   66

   2   rms: 0.9919E-01   max: -.9773E+00   T at   66  2   RLX: 0.512
       a =  2.000      CL =  0.2374
      Cm = -0.0029     CD =  0.00568   =>   CDf =  0.00488    CDp =  0.00079

 Side 1  free  transition at x/c =  0.4539   50
 Side 2  free  transition at x/c =  0.8220   66

   3   rms: 0.4720E-01   max: -.4116E+00   T at   66  2
       a =  2.000      CL =  0.2196
      Cm =  0.0015     CD =  0.00604   =>   CDf =  0.00479    CDp =  0.00125

 Side 1  free  transition at x/c =  0.4743   52
 Side 2  free  transition at x/c =  0.9119   72

   4   rms: 0.5489E-01   max: 0.7956E+00   C at   72  2
       a =  2.000      CL =  0.2095
      Cm =  0.0041     CD =  0.00572   =>   CDf =  0.00427    CDp =  0.00145

 Side 1  free  transition at x/c =  0.4759   52
 Side 2  free  transition at x/c =  0.8835   70

   5   rms: 0.1303E-01   max: -.1589E+00   D at   70  2
       a =  2.000      CL =  0.2139
      Cm =  0.0031     CD =  0.00579   =>   CDf =  0.00432    CDp =  0.00147

 Side 1  free  transition at x/c =  0.4743   52
 Side 2  free  transition at x/c =  0.8659   69

   6   rms: 0.4787E-02   max: -.8691E-01   C at   69  2
       a =  2.000      CL =  0.2142
      Cm =  0.0030     CD =  0.00581   =>   CDf =  0.00439    CDp =  0.00142

 Side 1  free  transition at x/c =  0.4742   52
 Side 2  free  transition at x/c =  0.8677   69

   7   rms: 0.2093E-03   max: -.3540E-02   D at   71  2
       a =  2.000      CL =  0.2142
      Cm =  0.0030     CD =  0.00581   =>   CDf =  0.00437    CDp =  0.00143

 Side 1  free  transition at x/c =  0.4742   52
 Side 2  free  transition at x/c =  0.8676   69

   8   rms: 0.6209E-06   max: -.5425E-05   D at   71  2
       a =  2.000      CL =  0.2142
      Cm =  0.0030     CD =  0.00581   =>   CDf =  0.00438    CDp =  0.00143

.OPERv   c>  
 Solving BL system ...

 Side 1  free  transition at x/c =  0.4742   52
 Side 2  free  transition at x/c =  0.8676   69

   1   rms: 0.1543E-05   max: 0.2386E-04   C at   52  1
       a =  2.000      CL =  0.2142
      Cm =  0.0030     CD =  0.00581   =>   CDf =  0.00438    CDp =  0.00143

.OPERv   c>  
 Polar  1 newly created for accumulation
 Airfoil archived with polar: NACA 0012 AIRFOILS                              

Enter  polar save filename  OR  <return> for no file   s>  
 New polar save file available

Enter  polar dump filename  OR  <return> for no file   s>  
 Polar dump file will NOT be written

 Polar accumulation enabled

.OPERva   c>  
 Solving BL system ...

 Side 1  free  transition at x/c =  0.4742   52
 Side 2  free  transition at x/c =  0.8676   69

   1   rms: 0.5234E-06   max: 0.5594E-05   C at   69  2
       a =  2.000      CL =  0.2142
      Cm =  0.0030     CD =  0.00581   =>   CDf =  0.00438    CDp =  0.00143

 Point added to stored polar  1
 Point written to save file  polar_tmp.dat                                   
 Dump file unspecified or not available

.OPERva   c>  
 Solving BL system ...

 Side 1  free  transition at x/c =  0.4742   52
 Side 2  free  transition at x/c =  0.8676   69

   1   rms: 0.6549E-06   max: 0.8678E-05   C at   69  2
       a =  2.000      CL =  0.2142
      Cm =  0.0030     CD =  0.00581   =>   CDf =  0.00438    CDp =  0.00143

 Point added to stored polar  1
 Point written to save file  polar_tmp.dat                                   
 Dump file unspecified or not available

.OPERva   c>  
 Solving BL system ...

 Side 1  free  transition at x/c =  0.4742   52
 Side 2  free  transition at x/c =  0.8676   69

   1   rms: 0.6763E-06   max: 0.7306E-05   C at   52  1
       a =  2.000      CL =  0.2142
      Cm =  0.0030     CD =  0.00581   =>   CDf =  0.00438    CDp =  0.00143

 Point added to stored polar  1
 Point written to save file  polar_tmp.dat                                   
 Dump file unspecified or not available
 Calculating wake trajectory ...
 Calculating source influence matrix ...

 Solving BL system ...

 Side 1  free  transition at x/c =  0.4742   52
 Side 2  free  transition at x/c =  0.8676   69

   1   rms: 0.6190E-01   max: 0.7384E+00   C at   52  1
       a =  2.250      CL =  0.2405
      Cm =  0.0034     CD =  0.00600   =>   CDf =  0.00437    CDp =  0.00163

 Side 1  free  transition at x/c =  0.4443   50
 Side 2  free  transition at x/c =  0.8843   70

   2   rms: 0.1156E-01   max: 0.1812E+00   D at   51  1
       a =  2.250      CL =  0.2409
      Cm =  0.0034     CD =  0.00592   =>   CDf =  0.00443    CDp =  0.00149

 Side 1  free  transition at x/c =  0.4472   50
 Side 2  free  transition at x/c =  0.8851   70

   3   rms: 0.1009E-02   max: -.1794E-01   D at   51  1
       a =  2.250      CL =  0.2409
      Cm =  0.0034     CD =  0.00592   =>   CDf =  0.00441    CDp =  0.00151

 Side 1  free  transition at x/c =  0.4469   50
 Side 2  free  transition at x/c =  0.8851   70

   4   rms: 0.1010E-04   max: -.1933E-03   D at   51  1
       a =  2.250      CL =  0.2409
      Cm =  0.0034     CD =  0.00592   =>   CDf =  0.00441    CDp =  0.00151

 Point added to stored polar  1
 Point written to save file  polar_tmp.dat                                   
 Dump file unspecified or not available
 Calculating wake trajectory ...
 Calculating source influence matrix ...

 Solving BL system ...

 Side 1  free  transition at x/c =  0.4469   50
 Side 2  free  transition at x/c =  0.8851   70

   1   rms: 0.6135E-01   max: 0.9021E+00   C at   50  1
       a =  2.500      CL =  0.2675
      Cm =  0.0038     CD =  0.00608   =>   CDf =  0.00437    CDp =  0.00171

 Side 1  free  transition at x/c =  0.4173   49
 Side 2  free  transition at x/c =  0.9013   70

   2   rms: 0.9136E-02   max: 0.1459E+00   D at   50  1
       a =  2.500      CL =  0.2673
      Cm =  0.0039     CD =  0.00606   =>   CDf =  0.00447    CDp =  0.00159

 Side 1  free  transition at x/c =  0.4202   49
 Side 2  free  transition at x/c =  0.9011   70

   3   rms: 0.7879E-03   max: 0.1328E-01   C at   49  1
       a =  2.500      CL =  0.2673
      Cm =  0.0039     CD =  0.00606   =>   CDf =  0.00446    CDp =  0.00160

 Side 1  free  transition at x/c =  0.4200   49
 Side 2  free  transition at x/c =  0.9010   70

   4   rms: 0.4589E-05   max: 0.8819E-04   C at   49  1
       a =  2.500      CL =  0.2673
      Cm =  0.0039     CD =  0.00606   =>   CDf =  0.00446    CDp =  0.00160

 Point added to stored polar  1
 Point written to save file  polar_tmp.dat                                   
 Dump file unspecified or not available
 Calculating wake trajectory ...
 Calculating source influence matrix ...

 Solving BL system ...

 Side 1  free  transition at x/c =  0.4200   49
 Side 2  free  transition at x/c =  0.9010   70

   1   rms: 0.5660E-01   max: 0.8346E+00   C at   49  1
       a =  2.750      CL =  0.2941
      Cm =  0.0042     CD =  0.00618   =>   CDf =  0.00446    CDp =  0.00172

 Side 1  free  transition at x/c =  0.3879   47
 Side 2  free  transition at x/c =  0.9155   71

   2   rms: 0.9253E-02   max: -.1809E+00   C at   47  1
       a =  2.750      CL =  0.2936
      Cm =  0.0044     CD =  0.00623   =>   CDf =  0.00455    CDp =  0.00168

 Side 1  free  transition at x/c =  0.3913   47
 Side 2  free  transition at x/c =  0.9156   71

   3   rms: 0.2771E-02   max: -.6196E-01   C at   47  1
       a =  2.750      CL =  0.2936
      Cm =  0.0044     CD =  0.00623   =>   CDf =  0.00454    CDp =  0.00169

 Side 1  free  transition at x/c =  0.3910   47
 Side 2  free  transition at x/c =  0.9155   71

   4   rms: 0.3626E-02   max: -.8192E-01   C at   47  1
       a =  2.750      CL =  0.2936
      Cm =  0.0044     CD =  0.00623   =>   CDf =  0.00454    CDp =  0.00169

 Side 1  free  transition at x/c =  0.3910   47
 Side 2  free  transition at x/c =  0.9155   71

   5   rms: 0.3588E-02   max: -.8103E-01   C at   47  1
       a =  2.750      CL =  0.2936
      Cm =  0.0044     CD =  0.00623   =>   CDf =  0.00454    CDp =  0.00169

 Side 1  free  transition at x/c =  0.3910   47
 Side 2  free  transition at x/c =  0.9155   71

   6   rms: 0.3590E-02   max: -.8109E-01   C at   47  1
       a =  2.750      CL =  0.2936
      Cm =  0.0044     CD =  0.00623   =>   CDf =  0.00454    CDp =  0.00169

 Side 1  free  transition at x/c =  0.3910   47
 Side 2  free  transition at x/c =  0.9155   71

   7   rms: 0.3590E-02   max: -.8107E-01   C at   47  1
       a =  2.750      CL =  0.2936
      Cm =  0.0044     CD =  0.00623   =>   CDf =  0.00454    CDp =  0.00169

 Side 1  free  transition at x/c =  0.3910   47
 Side 2  free  transition at x/c =  0.9155   71

   8   rms: 0.3590E-02   max: -.8107E-01   C at   47  1
       a =  2.750      CL =  0.2936
      Cm =  0.0044     CD =  0.00623   =>   CDf =  0.00454    CDp =  0.00169

 Side 1  free  transition at x/c =  0.3910   47
 Side 2  free  transition at x/c =  0.9155   71

   9   rms: 0.3590E-02   max: -.8109E-01   C at   47  1
       a =  2.750      CL =  0.2936
      Cm =  0.0044     CD =  0.00623   =>   CDf =  0.00454    CDp =  0.00169

 Side 1  free  transition at x/c =  0.3910   47
 Side 2  free  transition at x/c =  0.9155   71

  10   rms: 0.3590E-02   max: -.8108E-01   C at   47  1
       a =  2.750      CL =  0.2936
      Cm =  0.0044     CD =  0.00623   =>   CDf =  0.00454    CDp =  0.00169

 Side 1  free  transition at x/c =  0.3910   47
 Side 2  free  transition at x/c =  0.9155   71

  11   rms: 0.3590E-02   max: -.8109E-01   C at   47  1
       a =  2.750      CL =  0.2936
      Cm =  0.0044     CD =  0.00623   =>   CDf =  0.00454    CDp =  0.00169

 Side 1  free  transition at x/c =  0.3910   47
 Side 2  free  transition at x/c =  0.9155   71

  12   rms: 0.3590E-02   max: -.8108E-01   C at   47  1
       a =  2.750      CL =  0.2936
      Cm =  0.0044     CD =  0.00623   =>   CDf =  0.00454    CDp =  0.00169

 Side 1  free  transition at x/c =  0.3910   47
 Side 2  free  transition at x/c =  0.9155   71

  13   rms: 0.3590E-02   max: -.8109E-01   C at   47  1
       a =  2.750      CL =  0.2936
      Cm =  0.0044     CD =  0.00623   =>   CDf =  0.00454    CDp =  0.00169

 Side 1  free  transition at x/c =  0.3910   47
 Side 2  free  transition at x/c =  0.9155   71

  14   rms: 0.3590E-02   max: -.8109E-01   C at   47  1
       a =  2.750      CL =  0.2936
      Cm =  0.0044     CD =  0.00623   =>   CDf =  0.00454    CDp =  0.00169

 Side 1  free  transition at x/c =  0.3910   47
 Side 2  free  transition at x/c =  0.9155   71

  15   rms: 0.3590E-02   max: -.8108E-01   C at   47  1
       a =  2.750      CL =  0.2936
      Cm =  0.0044     CD =  0.00623   =>   CDf =  0.00454    CDp =  0.00169

 Side 1  free  transition at x/c =  0.3910   47
 Side 2  free  transition at x/c =  0.9155   71

  16   rms: 0.3590E-02   max: -.8108E-01   C at   47  1
       a =  2.750      CL =  0.2936
      Cm =  0.0044     CD =  0.00623   =>   CDf =  0.00454    CDp =  0.00169

 Side 1  free  transition at x/c =  0.3910   47
 Side 2  free  transition at x/c =  0.9155   71

  17   rms: 0.3590E-02   max: -.8109E-01   C at   47  1
       a =  2.750      CL =  0.2936
      Cm =  0.0044     CD =  0.00623   =>   CDf =  0.00454    CDp =  0.00169

 Side 1  free  transition at x/c =  0.3910   47
 Side 2  free  transition at x/c =  0.9155   71

  18   rms: 0.3590E-02   max: -.8107E-01   C at   47  1
       a =  2.750      CL =  0.2936
      Cm =  0.0044     CD =  0.00623   =>   CDf =  0.00454    CDp =  0.00169

 Side 1  free  transition at x/c =  0.3910   47
 Side 2  free  transition at x/c =  0.9155   71

  19   rms: 0.3590E-02   max: -.8108E-01   C at   47  1
       a =  2.750      CL =  0.2936
      Cm =  0.0044     CD =  0.00623   =>   CDf =  0.00454    CDp =  0.00169

 Side 1  free  transition at x/c =  0.3910   47
 Side 2  free  transition at x/c =  0.9155   71

  20   rms: 0.3591E-02   max: -.8110E-01   C at   47  1
       a =  2.750      CL =  0.2936
      Cm =  0.0044     CD =  0.00623   =>   CDf =  0.00454    CDp =  0.00169

 Side 1  free  transition at x/c =  0.3910   47
 Side 2  free  transition at x/c =  0.9155   71

  21   rms: 0.3590E-02   max: -.8108E-01   C at   47  1
       a =  2.750      CL =  0.2936
      Cm =  0.0044     CD =  0.00623   =>   CDf =  0.00454    CDp =  0.00169

 Side 1  free  transition at x/c =  0.3910   47
 Side 2  free  transition at x/c =  0.9155   71

  22   rms: 0.3590E-02   max: -.8108E-01   C at   47  1
       a =  2.750      CL =  0.2936
      Cm =  0.0044     CD =  0.00623   =>   CDf =  0.00454    CDp =  0.00169

 Side 1  free  transition at x/c =  0.3910   47
 Side 2  free  transition at x/c =  0.9155   71

  23   rms: 0.3590E-02   max: -.8109E-01   C at   47  1
       a =  2.750      CL =  0.2936
      Cm =  0.0044     CD =  0.00623   =>   CDf =  0.00454    CDp =  0.00169

 Side 1  free  transition at x/c =  0.3910   47
 Side 2  free  transition at x/c =  0.9155   71

  24   rms: 0.3590E-02   max: -.8109E-01   C at   47  1
       a =  2.750      CL =  0.2936
      Cm =  0.0044     CD =  0.00623   =>   CDf =  0.00454    CDp =  0.00169

 Side 1  free  transition at x/c =  0.3910   47
 Side 2  free  transition at x/c =  0.9155   71

  25   rms: 0.3590E-02   max: -.8108E-01   C at   47  1
       a =  2.750      CL =  0.2936
      Cm =  0.0044     CD =  0.00623   =>   CDf =  0.00454    CDp =  0.00169

 Side 1  free  transition at x/c =  0.3910   47
 Side 2  free  transition at x/c =  0.9155   71

  26   rms: 0.3590E-02   max: -.8109E-01   C at   47  1
       a =  2.750      CL =  0.2936
      Cm =  0.0044     CD =  0.00623   =>   CDf =  0.00454    CDp =  0.00169

 Side 1  free  transition at x/c =  0.3910   47
 Side 2  free  transition at x/c =  0.9155   71

  27   rms: 0.3590E-02   max: -.8108E-01   C at   47  1
       a =  2.750      CL =  0.2936
      Cm =  0.0044     CD =  0.00623   =>   CDf =  0.00454    CDp =  0.00169

 Side 1  free  transition at x/c =  0.3910   47
 Side 2  free  transition at x/c =  0.9155   71

  28   rms: 0.3590E-02   max: -.8109E-01   C at   47  1
       a =  2.750      CL =  0.2936
      Cm =  0.0044     CD =  0.00623   =>   CDf =  0.00454    CDp =  0.00169

 Side 1  free  transition at x/c =  0.3910   47
 Side 2  free  transition at x/c =  0.9155   71

  29   rms: 0.3590E-02   max: -.8109E-01   C at   47  1
       a =  2.750      CL =  0.2936
      Cm =  0.0044     CD =  0.00623   =>   CDf =  0.00454    CDp =  0.00169

 Side 1  free  transition at x/c =  0.3910   47
 Side 2  free  transition at x/c =  0.9155   71

  30   rms: 0.3591E-02   max: -.8110E-01   C at   47  1
       a =  2.750      CL =  0.2936
      Cm =  0.0044     CD =  0.00623   =>   CDf =  0.00454    CDp =  0.00169

 Side 1  free  transition at x/c =  0.3910   47
 Side 2  free  transition at x/c =  0.9155   71

  31   rms: 0.3590E-02   max: -.8108E-01   C at   47  1
       a =  2.750      CL =  0.2936
      Cm =  0.0044     CD =  0.00623   =>   CDf =  0.00454    CDp =  0.00169

 Side 1  free  transition at x/c =  0.3910   47
 Side 2  free  transition at x/c =  0.9155   71

  32   rms: 0.3590E-02   max: -.8108E-01   C at   47  1
       a =  2.750      CL =  0.2936
      Cm =  0.0044     CD =  0.00623   =>   CDf =  0.00454    CDp =  0.00169

 Side 1  free  transition at x/c =  0.3910   47
 Side 2  free  transition at x/c =  0.9155   71

  33   rms: 0.3590E-02   max: -.8109E-01   C at   47  1
       a =  2.750      CL =  0.2936
      Cm =  0.0044     CD =  0.00623   =>   CDf =  0.00454    CDp =  0.00169

 Side 1  free  transition at x/c =  0.3910   47
 Side 2  free  transition at x/c =  0.9155   71

  34   rms: 0.3590E-02   max: -.8108E-01   C at   47  1
       a =  2.750      CL =  0.2936
      Cm =  0.0044     CD =  0.00623   =>   CDf =  0.00454    CDp =  0.00169

 Side 1  free  transition at x/c =  0.3910   47
 Side 2  free  transition at x/c =  0.9155   71

  35   rms: 0.3590E-02   max: -.8109E-01   C at   47  1
       a =  2.750      CL =  0.2936
      Cm =  0.0044     CD =  0.00623   =>   CDf =  0.00454    CDp =  0.00169

 Side 1  free  transition at x/c =  0.3910   47
 Side 2  free  transition at x/c =  0.9155   71

  36   rms: 0.3590E-02   max: -.8109E-01   C at   47  1
       a =  2.750      CL =  0.2936
      Cm =  0.0044     CD =  0.00623   =>   CDf =  0.00454    CDp =  0.00169

 Side 1  free  transition at x/c =  0.3910   47
 Side 2  free  transition at x/c =  0.9155   71

  37   rms: 0.3590E-02   max: -.8107E-01   C at   47  1
       a =  2.750      CL =  0.2936
      Cm =  0.0044     CD =  0.00623   =>   CDf =  0.00454    CDp =  0.00169

 Side 1  free  transition at x/c =  0.3910   47
 Side 2  free  transition at x/c =  0.9155   71

  38   rms: 0.3590E-02   max: -.8108E-01   C at   47  1
       a =  2.750      CL =  0.2936
      Cm =  0.0044     CD =  0.00623   =>   CDf =  0.00454    CDp =  0.00169

 Side 1  free  transition at x/c =  0.3910   47
 Side 2  free  transition at x/c =  0.9155   71

  39   rms: 0.3590E-02   max: -.8110E-01   C at   47  1
       a =  2.750      CL =  0.2936
      Cm =  0.0044     CD =  0.00623   =>   CDf =  0.00454    CDp =  0.00169

 Side 1  free  transition at x/c =  0.3910   47
 Side 2  free  transition at x/c =  0.9155   71

  40   rms: 0.3590E-02   max: -.8108E-01   C at   47  1
       a =  2.750      CL =  0.2936
      Cm =  0.0044     CD =  0.00623   =>   CDf =  0.00454    CDp =  0.00169

 Side 1  free  transition at x/c =  0.3910   47
 Side 2  free  transition at x/c =  0.9155   71

  41   rms: 0.3590E-02   max: -.8108E-01   C at   47  1
       a =  2.750      CL =  0.2936
      Cm =  0.0044     CD =  0.00623   =>   CDf =  0.00454    CDp =  0.00169

 Side 1  free  transition at x/c =  0.3910   47
 Side 2  free  transition at x/c =  0.9155   71

  42   rms: 0.3590E-02   max: -.8109E-01   C at   47  1
       a =  2.750      CL =  0.2936
      Cm =  0.0044     CD =  0.00623   =>   CDf =  0.00454    CDp =  0.00169

 Side 1  free  transition at x/c =  0.3910   47
 Side 2  free  transition at x/c =  0.9155   71

  43   rms: 0.3590E-02   max: -.8109E-01   C at   47  1
       a =  2.750      CL =  0.2936
      Cm =  0.0044     CD =  0.00623   =>   CDf =  0.00454    CDp =  0.00169

 Side 1  free  transition at x/c =  0.3910   47
 Side 2  free  transition at x/c =  0.9155   71

  44   rms: 0.3590E-02   max: -.8108E-01   C at   47  1
       a =  2.750      CL =  0.2936
      Cm =  0.0044     CD =  0.00623   =>   CDf =  0.00454    CDp =  0.00169

 Side 1  free  transition at x/c =  0.3910   47
 Side 2  free  transition at x/c =  0.9155   71

  45   rms: 0.3590E-02   max: -.8109E-01   C at   47  1
       a =  2.750      CL =  0.2936
      Cm =  0.0044     CD =  0.00623   =>   CDf =  0.00454    CDp =  0.00169
 VISCAL:  Convergence failed
 Calculating wake trajectory ...
 Calculating source influence matrix ...

 Solving BL system ...

 Side 1  free  transition at x/c =  0.3910   47
 Side 2  free  transition at x/c =  0.9155   71

   1   rms: 0.4516E-01   max: 0.3410E+00   C at   47  1
       a =  3.000      CL =  0.3206
      Cm =  0.0048     CD =  0.00631   =>   CDf =  0.00454    CDp =  0.00177

 Side 1  free  transition at x/c =  0.3585   45
 Side 2  free  transition at x/c =  0.9275   72

   2   rms: 0.9359E-02   max: -.1978E+00   C at   45  1
       a =  3.000      CL =  0.3197
      Cm =  0.0049     CD =  0.00642   =>   CDf =  0.00464    CDp =  0.00178

 Side 1  free  transition at x/c =  0.3649   46
 Side 2  free  transition at x/c =  0.9285   72

   3   rms: 0.1324E-02   max: 0.2049E-01   C at   46  1
       a =  3.000      CL =  0.3200
      Cm =  0.0048     CD =  0.00639   =>   CDf =  0.00459    CDp =  0.00180

 Side 1  free  transition at x/c =  0.3640   46
 Side 2  free  transition at x/c =  0.9285   72

   4   rms: 0.2230E-04   max: -.4354E-03   C at   46  1
       a =  3.000      CL =  0.3200
      Cm =  0.0048     CD =  0.00639   =>   CDf =  0.00459    CDp =  0.00180

 Point added to stored polar  1
 Point written to save file  polar_tmp.dat                                   
 Dump file unspecified or not available
 Calculating wake trajectory ...
 Calculating source influence matrix ...

 Solving BL system ...

 Side 1  free  transition at x/c =  0.3640   46
 Side 2  free  transition at x/c =  0.9285   72

   1   rms: 0.6286E-01   max: 0.9119E+00   C at   46  1
       a =  3.250      CL =  0.3460
      Cm =  0.0054     CD =  0.00660   =>   CDf =  0.00456    CDp =  0.00204

 Side 1  free  transition at x/c =  0.3342   45
 Side 2  free  transition at x/c =  0.9375   72

   2   rms: 0.1480E-01   max: -.1618E+00   C at   72  2
       a =  3.250      CL =  0.3460
      Cm =  0.0054     CD =  0.00657   =>   CDf =  0.00471    CDp =  0.00186

 Side 1  free  transition at x/c =  0.3371   45
 Side 2  free  transition at x/c =  0.9412   72

   3   rms: 0.2153E-02   max: -.2562E-01   D at   74  2
       a =  3.250      CL =  0.3463
      Cm =  0.0053     CD =  0.00659   =>   CDf =  0.00467    CDp =  0.00192

 Side 1  free  transition at x/c =  0.3368   45
 Side 2  free  transition at x/c =  0.9405   72

   4   rms: 0.2970E-04   max: -.4368E-03   C at   72  2
       a =  3.250      CL =  0.3463
      Cm =  0.0053     CD =  0.00658   =>   CDf =  0.00467    CDp =  0.00191

 Point added to stored polar  1
 Point written to save file  polar_tmp.dat                                   
 Dump file unspecified or not available
 Calculating wake trajectory ...
 Calculating source influence matrix ...

 Solving BL system ...

 Side 1  free  transition at x/c =  0.3368   45
 Side 2  free  transition at x/c =  0.9405   72

   1   rms: 0.6110E-01   max: 0.9415E+00   C at   45  1
       a =  3.500      CL =  0.3735
      Cm =  0.0056     CD =  0.00676   =>   CDf =  0.00467    CDp =  0.00209

 Side 1  free  transition at x/c =  0.3054   43
 Side 2  free  transition at x/c =  0.9484   72

   2   rms: 0.1202E-01   max: -.1827E+00   C at   43  1
       a =  3.500      CL =  0.3721
      Cm =  0.0059     CD =  0.00680   =>   CDf =  0.00479    CDp =  0.00201

 Side 1  free  transition at x/c =  0.3093   43
 Side 2  free  transition at x/c =  0.9520   72

   3   rms: 0.7787E-03   max: 0.1261E-01   C at   43  1
       a =  3.500      CL =  0.3724
      Cm =  0.0058     CD =  0.00680   =>   CDf =  0.00477    CDp =  0.00204

 Side 1  free  transition at x/c =  0.3091   43
 Side 2  free  transition at x/c =  0.9517   72

   4   rms: 0.1260E-04   max: 0.1638E-03   C at   43  1
       a =  3.500      CL =  0.3724
      Cm =  0.0058     CD =  0.00680   =>   CDf =  0.00477    CDp =  0.00203

 Point added to stored polar  1
 Point written to save file  polar_tmp.dat                                   
 Dump file unspecified or not available
 Calculating wake trajectory ...
 Calculating source influence matrix ...

 Solving BL system ...

 Side 1  free  transition at x/c =  0.3091   43
 Side 2  free  transition at x/c =  0.9517   72

   1   rms: 0.5287E-01   max: 0.7803E+00   C at   43  1
       a =  3.750      CL =  0.3975
      Cm =  0.0065     CD =  0.00695   =>   CDf =  0.00477    CDp =  0.00218

 Side 1  free  transition at x/c =  0.2775   41
 Side 2  free  transition at x/c =  0.9643   73

   2   rms: 0.1225E-01   max: -.1636E+00   C at   41  1
       a =  3.750      CL =  0.4017
      Cm =  0.0056     CD =  0.00706   =>   CDf =  0.00489    CDp =  0.00217

 Side 1  free  transition at x/c =  0.2793   42
 Side 2  free  transition at x/c =  0.9581   73

   3   rms: 0.5474E-02   max: -.5508E-01   C at   73  2
       a =  3.750      CL =  0.4003
      Cm =  0.0059     CD =  0.00704   =>   CDf =  0.00488    CDp =  0.00216

 Side 1  free  transition at x/c =  0.2805   42
 Side 2  free  transition at x/c =  0.9599   73

   4   rms: 0.4544E-03   max: 0.6011E-02   C at   42  1
       a =  3.750      CL =  0.4006
      Cm =  0.0058     CD =  0.00704   =>   CDf =  0.00487    CDp =  0.00217

 Side 1  free  transition at x/c =  0.2804   42
 Side 2  free  transition at x/c =  0.9598   73

   5   rms: 0.3447E-05   max: -.3861E-04   C at   73  2
       a =  3.750      CL =  0.4005
      Cm =  0.0058     CD =  0.00704   =>   CDf =  0.00487    CDp =  0.00217

 Point added to stored polar  1
 Point written to save file  polar_tmp.dat                                   
 Dump file unspecified or not available
 Calculating wake trajectory ...
 Calculating source influence matrix ...

 Solving BL system ...

 Side 1  free  transition at x/c =  0.2804   42
 Side 2  free  transition at x/c =  0.9598   73

   1   rms: 0.6672E-01   max: 0.8134E+00   C at   42  1   RLX: 0.895
       a =  4.000      CL =  0.4246
      Cm =  0.0061     CD =  0.00733   =>   CDf =  0.00484    CDp =  0.00248

 Side 1  free  transition at x/c =  0.2550   41
 Side 2  free  transition at x/c =  0.9661   72

   2   rms: 0.1208E-01   max: 0.1315E+00   D at   42  1
       a =  4.000      CL =  0.4249
      Cm =  0.0067     CD =  0.00727   =>   CDf =  0.00496    CDp =  0.00231

 Side 1  free  transition at x/c =  0.2551   41
 Side 2  free  transition at x/c =  0.9714   73

   3   rms: 0.1027E-01   max: 0.1311E+00   C at   73  2
       a =  4.000      CL =  0.4272
      Cm =  0.0062     CD =  0.00727   =>   CDf =  0.00496    CDp =  0.00231

 Side 1  free  transition at x/c =  0.2539   41
 Side 2  free  transition at x/c =  0.9687   73

   4   rms: 0.1052E-02   max: -.1348E-01   D at   75  2
       a =  4.000      CL =  0.4278
      Cm =  0.0060     CD =  0.00728   =>   CDf =  0.00496    CDp =  0.00231

 Side 1  free  transition at x/c =  0.2537   41
 Side 2  free  transition at x/c =  0.9684   73

   5   rms: 0.1133E-04   max: -.1700E-03   D at   73  2
       a =  4.000      CL =  0.4278
      Cm =  0.0060     CD =  0.00728   =>   CDf =  0.00497    CDp =  0.00231

 Point added to stored polar  1
 Point written to save file  polar_tmp.dat                                   
 Dump file unspecified or not available
 Calculating wake trajectory ...
 Calculating source influence matrix ...

 Solving BL system ...

 Side 1  free  transition at x/c =  0.2537   41
 Side 2  free  transition at x/c =  0.9684   73

   1   rms: 0.6871E-01   max: 0.1059E+01   C at   41  1
       a =  4.250      CL =  0.4598
      Cm =  0.0051     CD =  0.00756   =>   CDf =  0.00496    CDp =  0.00259

 Side 1  free  transition at x/c =  0.2226   39
 Side 2  free  transition at x/c =  0.9728   73

   2   rms: 0.1067E-01   max: -.1524E+00   C at   39  1
       a =  4.250      CL =  0.4591
      Cm =  0.0053     CD =  0.00756   =>   CDf =  0.00510    CDp =  0.00246

 Side 1  free  transition at x/c =  0.2258   39
 Side 2  free  transition at x/c =  0.9737   73

   3   rms: 0.5411E-03   max: -.9641E-02   D at   40  1
       a =  4.250      CL =  0.4591
      Cm =  0.0053     CD =  0.00756   =>   CDf =  0.00508    CDp =  0.00248

 Side 1  free  transition at x/c =  0.2257   39
 Side 2  free  transition at x/c =  0.9737   73

   4   rms: 0.3039E-05   max: 0.5856E-04   C at   39  1
       a =  4.250      CL =  0.4591
      Cm =  0.0053     CD =  0.00756   =>   CDf =  0.00508    CDp =  0.00248

 Point added to stored polar  1
 Point written to save file  polar_tmp.dat                                   
 Dump file unspecified or not available
 Calculating wake trajectory ...
 Calculating source influence matrix ...

 Solving BL system ...

 Side 1  free  transition at x/c =  0.2257   39
 Side 2  free  transition at x/c =  0.9737   73

   1   rms: 0.6520E-01   max: 0.1057E+01   C at   39  1
       a =  4.500      CL =  0.4900
      Cm =  0.0046     CD =  0.00782   =>   CDf =  0.00508    CDp =  0.00274

 Side 1  free  transition at x/c =  0.1961   37
 Side 2  free  transition at x/c =  0.9785   73

   2   rms: 0.1088E-01   max: -.1735E+00   C at   37  1
       a =  4.500      CL =  0.4877
      Cm =  0.0051     CD =  0.00785   =>   CDf =  0.00522    CDp =  0.00263

 Side 1  free  transition at x/c =  0.1992   37
 Side 2  free  transition at x/c =  0.9805   74

   3   rms: 0.1010E-02   max: 0.9614E-02   C at   74  2
       a =  4.500      CL =  0.4877
      Cm =  0.0051     CD =  0.00785   =>   CDf =  0.00520    CDp =  0.00265

 Side 1  free  transition at x/c =  0.1991   37
 Side 2  free  transition at x/c =  0.9804   74

   4   rms: 0.3912E-05   max: 0.4051E-04   T at   74  2
       a =  4.500      CL =  0.4877
      Cm =  0.0051     CD =  0.00785   =>   CDf =  0.00520    CDp =  0.00265

 Point added to stored polar  1
 Point written to save file  polar_tmp.dat                                   
 Dump file unspecified or not available
 Calculating wake trajectory ...
 Calculating source influence matrix ...

 Solving BL system ...

 Side 1  free  transition at x/c =  0.1991   37
 Side 2  free  transition at x/c =  0.9804   74

   1   rms: 0.5895E-01   max: 0.8244E+00   C at   37  1
       a =  4.750      CL =  0.5231
      Cm =  0.0035     CD =  0.00806   =>   CDf =  0.00517    CDp =  0.00289

 Side 1  free  transition at x/c =  0.1688   36
 Side 2  free  transition at x/c =  0.9826   73

   2   rms: 0.8774E-02   max: -.1695E+00   C at   36  1
       a =  4.750      CL =  0.5224
      Cm =  0.0035     CD =  0.00819   =>   CDf =  0.00535    CDp =  0.00284

 Side 1  free  transition at x/c =  0.1716   37
 Side 2  free  transition at x/c =  0.9828   73

   3   rms: 0.2471E-02   max: -.3647E-01   C at   37  1
       a =  4.750      CL =  0.5226
      Cm =  0.0035     CD =  0.00816   =>   CDf =  0.00533    CDp =  0.00283

 Side 1  free  transition at x/c =  0.1723   37
 Side 2  free  transition at x/c =  0.9828   73

   4   rms: 0.1138E-03   max: 0.1747E-02   C at   37  1
       a =  4.750      CL =  0.5226
      Cm =  0.0035     CD =  0.00816   =>   CDf =  0.00532    CDp =  0.00284

 Side 1  free  transition at x/c =  0.1723   37
 Side 2  free  transition at x/c =  0.9828   73

   5   rms: 0.1275E-05   max: -.1295E-04   D at   74  2
       a =  4.750      CL =  0.5226
      Cm =  0.0035     CD =  0.00816   =>   CDf =  0.00532    CDp =  0.00284

 Point added to stored polar  1
 Point written to save file  polar_tmp.dat                                   
 Dump file unspecified or not available
 Calculating wake trajectory ...
 Calculating source influence matrix ...

 Solving BL system ...

 Side 1  free  transition at x/c =  0.1723   37
 Side 2  free  transition at x/c =  0.9828   73

   1   rms: 0.7019E-01   max: 0.7658E+00   C at   37  1   RLX: 0.782
       a =  5.000      CL =  0.5498
      Cm =  0.0022     CD =  0.00847   =>   CDf =  0.00532    CDp =  0.00315

 Side 1  free  transition at x/c =  0.1529   35
 Side 2  free  transition at x/c =  0.9845   73

   2   rms: 0.1428E-01   max: -.1106E+00   D at   37  1
       a =  5.000      CL =  0.5581
      Cm =  0.0017     CD =  0.00846   =>   CDf =  0.00542    CDp =  0.00305

 Side 1  free  transition at x/c =  0.1486   35
 Side 2  free  transition at x/c =  0.9849   73

   3   rms: 0.5948E-03   max: -.1184E-01   C at   35  1
       a =  5.000      CL =  0.5580
      Cm =  0.0017     CD =  0.00847   =>   CDf =  0.00543    CDp =  0.00304

 Side 1  free  transition at x/c =  0.1489   35
 Side 2  free  transition at x/c =  0.9849   73

   4   rms: 0.1550E-05   max: -.2368E-04   D at   36  1
       a =  5.000      CL =  0.5580
      Cm =  0.0017     CD =  0.00847   =>   CDf =  0.00543    CDp =  0.00304

 Point added to stored polar  1
 Point written to save file  polar_tmp.dat                                   
 Dump file unspecified or not available
 Calculating wake trajectory ...
 Calculating source influence matrix ...

 Solving BL system ...

 Side 1  free  transition at x/c =  0.1489   35
 Side 2  free  transition at x/c =  0.9849   73

   1   rms: 0.6495E-01   max: 0.9438E+00   C at   35  1
       a =  5.250      CL =  0.5932
      Cm =  0.0000     CD =  0.00877   =>   CDf =  0.00543    CDp =  0.00335

 Side 1  free  transition at x/c =  0.1252   34
 Side 2  free  transition at x/c =  0.9870   73

   2   rms: 0.7091E-02   max: 0.1389E+00   D at   34  1
       a =  5.250      CL =  0.5924
      Cm =  0.0002     CD =  0.00881   =>   CDf =  0.00557    CDp =  0.00324

 Side 1  free  transition at x/c =  0.1274   34
 Side 2  free  transition at x/c =  0.9874   73

   3   rms: 0.1626E-02   max: -.3100E-01   D at   34  1
       a =  5.250      CL =  0.5924
      Cm =  0.0002     CD =  0.00881   =>   CDf =  0.00554    CDp =  0.00326

 Side 1  free  transition at x/c =  0.1267   34
 Side 2  free  transition at x/c =  0.9874   73

   4   rms: 0.6446E-04   max: -.1269E-02   D at   34  1
       a =  5.250      CL =  0.5924
      Cm =  0.0002     CD =  0.00881   =>   CDf =  0.00555    CDp =  0.00326

 Point added to stored polar  1
 Point written to save file  polar_tmp.dat                                   
 Dump file unspecified or not available
 Calculating wake trajectory ...
 Calculating source influence matrix ...

 Solving BL system ...

 Side 1  free  transition at x/c =  0.1267   34
 Side 2  free  transition at x/c =  0.9874   73

   1   rms: 0.6202E-01   max: -.6150E+00   D at   34  1   RLX: 0.813
       a =  5.500      CL =  0.6197
      Cm = -0.0010     CD =  0.00912   =>   CDf =  0.00551    CDp =  0.00362

 Side 1  free  transition at x/c =  0.1111   33
 Side 2  free  transition at x/c =  0.9895   72

   2   rms: 0.1367E-01   max: 0.1247E+00   D at   34  1
       a =  5.500      CL =  0.6256
      Cm = -0.0011     CD =  0.00911   =>   CDf =  0.00564    CDp =  0.00348

 Side 1  free  transition at x/c =  0.1094   33
 Side 2  free  transition at x/c =  0.9904   72

   3   rms: 0.4140E-03   max: -.3125E-02   D at    4  1
       a =  5.500      CL =  0.6255
      Cm = -0.0011     CD =  0.00911   =>   CDf =  0.00563    CDp =  0.00348

 Side 1  free  transition at x/c =  0.1093   33
 Side 2  free  transition at x/c =  0.9904   72

   4   rms: 0.8916E-06   max: -.9340E-05   C at   33  1
       a =  5.500      CL =  0.6255
      Cm = -0.0011     CD =  0.00911   =>   CDf =  0.00563    CDp =  0.00348

 Point added to stored polar  1
 Point written to save file  polar_tmp.dat                                   
 Dump file unspecified or not available
 Calculating wake trajectory ...
 Calculating source influence matrix ...

 Solving BL system ...

 Side 1  free  transition at x/c =  0.1093   33
 Side 2  free  transition at x/c =  0.9904   72

   1   rms: 0.5224E-01   max: 0.5481E+00   C at   33  1
       a =  5.750      CL =  0.6579
      Cm = -0.0021     CD =  0.00937   =>   CDf =  0.00563    CDp =  0.00374

 Side 1  free  transition at x/c =  0.0943   32
 Side 2  free  transition at x/c =  0.9939   73

   2   rms: 0.8311E-02   max: 0.1021E+00   D at   73  2
       a =  5.750      CL =  0.6596
      Cm = -0.0025     CD =  0.00941   =>   CDf =  0.00571    CDp =  0.00370

 Side 1  free  transition at x/c =  0.0942   32
 Side 2  free  transition at x/c =  0.9924   73

   3   rms: 0.3936E-03   max: -.7466E-02   D at   73  2
       a =  5.750      CL =  0.6595
      Cm = -0.0025     CD =  0.00942   =>   CDf =  0.00571    CDp =  0.00371

 Side 1  free  transition at x/c =  0.0941   32
 Side 2  free  transition at x/c =  0.9925   73

   4   rms: 0.9239E-06   max: 0.5955E-05   D at   75  2
       a =  5.750      CL =  0.6595
      Cm = -0.0025     CD =  0.00942   =>   CDf =  0.00571    CDp =  0.00371

 Point added to stored polar  1
 Point written to save file  polar_tmp.dat                                   
 Dump file unspecified or not available
 Calculating wake trajectory ...
 Calculating source influence matrix ...

 Solving BL system ...

 Side 1  free  transition at x/c =  0.0941   32
 Side 2  free  transition at x/c =  0.9925   73

   1   rms: 0.5596E-01   max: 0.5664E+00   C at   32  1
       a =  6.000      CL =  0.6952
      Cm = -0.0043     CD =  0.00971   =>   CDf =  0.00565    CDp =  0.00406

 Side 1  free  transition at x/c =  0.0818   32
 Side 2  free  transition at x/c =  0.9938   72

   2   rms: 0.4121E-02   max: -.5529E-01   D at   32  1
       a =  6.000      CL =  0.6948
      Cm = -0.0043     CD =  0.00972   =>   CDf =  0.00577    CDp =  0.00395

 Side 1  free  transition at x/c =  0.0815   32
 Side 2  free  transition at x/c =  0.9940   72

   3   rms: 0.4474E-03   max: -.4829E-02   D at    4  1
       a =  6.000      CL =  0.6948
      Cm = -0.0043     CD =  0.00972   =>   CDf =  0.00578    CDp =  0.00394

 Side 1  free  transition at x/c =  0.0815   32
 Side 2  free  transition at x/c =  0.9940   72

   4   rms: 0.9774E-06   max: 0.5556E-05   D at   72  2
       a =  6.000      CL =  0.6948
      Cm = -0.0043     CD =  0.00972   =>   CDf =  0.00578    CDp =  0.00394

 Point added to stored polar  1
 Point written to save file  polar_tmp.dat                                   
 Dump file unspecified or not available
 Calculating wake trajectory ...
 Calculating source influence matrix ...

 Solving BL system ...

 Side 1  free  transition at x/c =  0.0815   32
 Side 2  free  transition at x/c =  0.9940   72

   1   rms: 0.5477E-01   max: 0.4708E+00   C at   32  1
       a =  6.250      CL =  0.7299
      Cm = -0.0060     CD =  0.01003   =>   CDf =  0.00578    CDp =  0.00425

 Side 1  free  transition at x/c =  0.0712   31
 Side 2  free  transition at x/c =  0.9955   72

   2   rms: 0.5865E-02   max: -.8637E-01   D at   31  1
       a =  6.250      CL =  0.7296
      Cm = -0.0059     CD =  0.01002   =>   CDf =  0.00583    CDp =  0.00419

 Side 1  free  transition at x/c =  0.0710   31
 Side 2  free  transition at x/c =  0.9958   72

   3   rms: 0.2439E-03   max: 0.4395E-02   C at   31  1
       a =  6.250      CL =  0.7296
      Cm = -0.0059     CD =  0.01003   =>   CDf =  0.00584    CDp =  0.00419

 Side 1  free  transition at x/c =  0.0709   31
 Side 2  free  transition at x/c =  0.9958   72

   4   rms: 0.1281E-05   max: -.7435E-05   C at   31  1
       a =  6.250      CL =  0.7296
      Cm = -0.0059     CD =  0.01003   =>   CDf =  0.00584    CDp =  0.00419

 Point added to stored polar  1
 Point written to save file  polar_tmp.dat                                   
 Dump file unspecified or not available
 Calculating wake trajectory ...
 Calculating source influence matrix ...

 Solving BL system ...

 Side 1  free  transition at x/c =  0.0709   31
 Side 2  free  transition at x/c =  0.9958   72

   1   rms: 0.5209E-01   max: 0.3454E+00   C at   31  1
       a =  6.500      CL =  0.7642
      Cm = -0.0075     CD =  0.01033   =>   CDf =  0.00584    CDp =  0.00449

 Side 1  free  transition at x/c =  0.0627   30
 Side 2  free  transition at x/c =  0.9974   72

   2   rms: 0.6214E-02   max: -.9823E-01   C at   30  1
       a =  6.500      CL =  0.7639
      Cm = -0.0074     CD =  0.01034   =>   CDf =  0.00589    CDp =  0.00445

 Side 1  free  transition at x/c =  0.0624   30
 Side 2  free  transition at x/c =  0.9976   72

   3   rms: 0.3179E-03   max: 0.6050E-02   C at   30  1
       a =  6.500      CL =  0.7638
      Cm = -0.0074     CD =  0.01034   =>   CDf =  0.00589    CDp =  0.00445

 Side 1  free  transition at x/c =  0.0623   30
 Side 2  free  transition at x/c =  0.9976   72

   4   rms: 0.1570E-05   max: -.1331E-04   D at   30  1
       a =  6.500      CL =  0.7638
      Cm = -0.0074     CD =  0.01034   =>   CDf =  0.00589    CDp =  0.00445

 Point added to stored polar  1
 Point written to save file  polar_tmp.dat                                   
 Dump file unspecified or not available
 Calculating wake trajectory ...
 Calculating source influence matrix ...

 Solving BL system ...

 Side 1  free  transition at x/c =  0.0623   30
 Side 2  free  transition at x/c =  0.9976   72

   1   rms: 0.4739E-01   max: -.2275E+00   D at   30  1
       a =  6.750      CL =  0.7985
      Cm = -0.0090     CD =  0.01059   =>   CDf =  0.00580    CDp =  0.00479

 Side 1  free  transition at x/c =  0.0554   31
 Side 2  free  transition at x/c =  0.9991   71

   2   rms: 0.3270E-02   max: -.3521E-01   D at    3  1
       a =  6.750      CL =  0.7976
      Cm = -0.0089     CD =  0.01070   =>   CDf =  0.00594    CDp =  0.00476

 Side 1  free  transition at x/c =  0.0548   31
 Side 2  free  transition at x/c =  0.9992   71

   3   rms: 0.4177E-03   max: -.4183E-02   D at    4  1
       a =  6.750      CL =  0.7976
      Cm = -0.0089     CD =  0.01070   =>   CDf =  0.00594    CDp =  0.00476

 Side 1  free  transition at x/c =  0.0548   30
 Side 2  free  transition at x/c =  0.9992   71

   4   rms: 0.1219E-03   max: -.2181E-02   C at   30  1
       a =  6.750      CL =  0.7976
      Cm = -0.0089     CD =  0.01070   =>   CDf =  0.00594    CDp =  0.00476

 Side 1  free  transition at x/c =  0.0548   30
 Side 2  free  transition at x/c =  0.9992   71

   5   rms: 0.7890E-06   max: -.7013E-05   D at   71  2
       a =  6.750      CL =  0.7976
      Cm = -0.0089     CD =  0.01070   =>   CDf =  0.00594    CDp =  0.00476

 Point added to stored polar  1
 Point written to save file  polar_tmp.dat                                   
 Dump file unspecified or not available
 Calculating wake trajectory ...
 Calculating source influence matrix ...

 Solving BL system ...

 Side 1  free  transition at x/c =  0.0548   30
 Side 2  free  transition at x/c =  0.9992   71

   1   rms: 0.4819E-01   max: -.3818E+00   C at   30  1
       a =  7.000      CL =  0.8325
      Cm = -0.0104     CD =  0.01087   =>   CDf =  0.00594    CDp =  0.00493

 Side 1  free  transition at x/c =  0.0504   30
 Side 2 forced transition at x/c =  1.0000   71

   2   rms: 0.8652E-02   max: -.7596E-01   D at   71  2
       a =  7.000      CL =  0.8264
      Cm = -0.0092     CD =  0.01094   =>   CDf =  0.00595    CDp =  0.00499

 Side 1  free  transition at x/c =  0.0506   30
 Side 2 forced transition at x/c =  1.0000   71

   3   rms: 0.1283E-03   max: 0.1257E-02   D at   64  2
       a =  7.000      CL =  0.8264
      Cm = -0.0092     CD =  0.01094   =>   CDf =  0.00595    CDp =  0.00499

 Side 1  free  transition at x/c =  0.0506   30
 Side 2 forced transition at x/c =  1.0000   71

   4   rms: 0.5214E-06   max: 0.5700E-05   D at   30  1
       a =  7.000      CL =  0.8264
      Cm = -0.0092     CD =  0.01094   =>   CDf =  0.00595    CDp =  0.00499

 Point added to stored polar  1
 Point written to save file  polar_tmp.dat                                   
 Dump file unspecified or not available
 Calculating wake trajectory ...
 Calculating source influence matrix ...

 Solving BL system ...

 Side 1  free  transition at x/c =  0.0506   30
 Side 2 forced transition at x/c =  1.0000   71

   1   rms: 0.4308E-01   max: -.2866E+00   D at   30  1
       a =  7.250      CL =  0.8472
      Cm = -0.0079     CD =  0.01124   =>   CDf =  0.00595    CDp =  0.00529

 Side 1  free  transition at x/c =  0.0467   29
 Side 2 forced transition at x/c =  1.0000   71

   2   rms: 0.4243E-02   max: -.5432E-01   D at   30  1
       a =  7.250      CL =  0.8471
      Cm = -0.0079     CD =  0.01124   =>   CDf =  0.00597    CDp =  0.00527

 Side 1  free  transition at x/c =  0.0463   29
 Side 2 forced transition at x/c =  1.0000   71

   3   rms: 0.1073E-03   max: -.8567E-03   D at   30  1
       a =  7.250      CL =  0.8471
      Cm = -0.0079     CD =  0.01125   =>   CDf =  0.00598    CDp =  0.00527

 Side 1  free  transition at x/c =  0.0463   29
 Side 2 forced transition at x/c =  1.0000   71

   4   rms: 0.6641E-06   max: -.4166E-05   C at   29  1
       a =  7.250      CL =  0.8471
      Cm = -0.0079     CD =  0.01125   =>   CDf =  0.00598    CDp =  0.00527

 Point added to stored polar  1
 Point written to save file  polar_tmp.dat                                   
 Dump file unspecified or not available
 Calculating wake trajectory ...
 Calculating source influence matrix ...

 Solving BL system ...

 Side 1  free  transition at x/c =  0.0463   29
 Side 2 forced transition at x/c =  1.0000   71

   1   rms: 0.3916E-01   max: -.1895E+00   C at   29  1
       a =  7.500      CL =  0.8688
      Cm = -0.0067     CD =  0.01144   =>   CDf =  0.00584    CDp =  0.00560

 Side 1  free  transition at x/c =  0.0437   30
 Side 2 forced transition at x/c =  1.0000   70

   2   rms: 0.2249E-02   max: -.2696E-01   D at   30  1
       a =  7.500      CL =  0.8684
      Cm = -0.0066     CD =  0.01148   =>   CDf =  0.00596    CDp =  0.00552

 Side 1  free  transition at x/c =  0.0435   30
 Side 2 forced transition at x/c =  1.0000   70

   3   rms: 0.4172E-03   max: -.4765E-02   D at    4  1
       a =  7.500      CL =  0.8684
      Cm = -0.0066     CD =  0.01148   =>   CDf =  0.00596    CDp =  0.00552

 Side 1  free  transition at x/c =  0.0435   30
 Side 2 forced transition at x/c =  1.0000   70

   4   rms: 0.6161E-06   max: -.5120E-05   D at   30  1
       a =  7.500      CL =  0.8684
      Cm = -0.0066     CD =  0.01148   =>   CDf =  0.00596    CDp =  0.00552

 Point added to stored polar  1
 Point written to save file  polar_tmp.dat                                   
 Dump file unspecified or not available
 Calculating wake trajectory ...
 Calculating source influence matrix ...

 Solving BL system ...

 Side 1  free  transition at x/c =  0.0435   30
 Side 2 forced transition at x/c =  1.0000   70

   1   rms: 0.4079E-01   max: -.2155E+00   D at   30  1
       a =  7.750      CL =  0.8893
      Cm = -0.0053     CD =  0.01178   =>   CDf =  0.00597    CDp =  0.00582

 Side 1  free  transition at x/c =  0.0406   30
 Side 2 forced transition at x/c =  1.0000   70

   2   rms: 0.2983E-02   max: -.3557E-01   D at   30  1
       a =  7.750      CL =  0.8885
      Cm = -0.0052     CD =  0.01185   =>   CDf =  0.00599    CDp =  0.00587

 Side 1  free  transition at x/c =  0.0401   30
 Side 2 forced transition at x/c =  1.0000   70

   3   rms: 0.3545E-03   max: -.4049E-02   D at   30  1
       a =  7.750      CL =  0.8885
      Cm = -0.0052     CD =  0.01186   =>   CDf =  0.00599    CDp =  0.00586

 Side 1  free  transition at x/c =  0.0401   30
 Side 2 forced transition at x/c =  1.0000   70

   4   rms: 0.4728E-05   max: -.4857E-04   D at   30  1
       a =  7.750      CL =  0.8885
      Cm = -0.0052     CD =  0.01186   =>   CDf =  0.00599    CDp =  0.00586

 Point added to stored polar  1
 Point written to save file  polar_tmp.dat                                   
 Dump file unspecified or not available
 Calculating wake trajectory ...
 Calculating source influence matrix ...

 Solving BL system ...

 Side 1  free  transition at x/c =  0.0401   30
 Side 2 forced transition at x/c =  1.0000   70

   1   rms: 0.4795E-01   max: 0.1711E+00   C at   30  1
       a =  8.000      CL =  0.9070
      Cm = -0.0035     CD =  0.01242   =>   CDf =  0.00599    CDp =  0.00643

 Side 1  free  transition at x/c =  0.0368   29
 Side 2 forced transition at x/c =  1.0000   70

   2   rms: 0.4328E-01   max: -.4958E+00   D at   29  1
       a =  8.000      CL =  0.9109
      Cm = -0.0041     CD =  0.01201   =>   CDf =  0.00592    CDp =  0.00609

 Side 1  free  transition at x/c =  0.0387   29
 Side 2 forced transition at x/c =  1.0000   70

   3   rms: 0.5965E-02   max: 0.7953E-01   C at   29  1
       a =  8.000      CL =  0.9101
      Cm = -0.0040     CD =  0.01209   =>   CDf =  0.00597    CDp =  0.00612

 Side 1  free  transition at x/c =  0.0382   29
 Side 2 forced transition at x/c =  1.0000   70

   4   rms: 0.1346E-03   max: -.1891E-02   D at   29  1
       a =  8.000      CL =  0.9101
      Cm = -0.0040     CD =  0.01209   =>   CDf =  0.00597    CDp =  0.00612

 Side 1  free  transition at x/c =  0.0382   29
 Side 2 forced transition at x/c =  1.0000   70

   5   rms: 0.8512E-06   max: -.2434E-05   C at   42  1
       a =  8.000      CL =  0.9101
      Cm = -0.0040     CD =  0.01209   =>   CDf =  0.00597    CDp =  0.00612

 Point added to stored polar  1
 Point written to save file  polar_tmp.dat                                   
 Dump file unspecified or not available
 Calculating wake trajectory ...
 Calculating source influence matrix ...

 Solving BL system ...

 Side 1  free  transition at x/c =  0.0382   29
 Side 2 forced transition at x/c =  1.0000   70

   1   rms: 0.3869E-01   max: 0.1545E+00   T at   29  1
       a =  8.250      CL =  0.9315
      Cm = -0.0027     CD =  0.01235   =>   CDf =  0.00597    CDp =  0.00638

 Side 1  free  transition at x/c =  0.0358   29
 Side 2 forced transition at x/c =  1.0000   70

   2   rms: 0.2304E-02   max: -.2904E-01   D at   29  1
       a =  8.250      CL =  0.9311
      Cm = -0.0027     CD =  0.01239   =>   CDf =  0.00598    CDp =  0.00641

 Side 1  free  transition at x/c =  0.0359   29
 Side 2 forced transition at x/c =  1.0000   70

   3   rms: 0.1988E-04   max: -.9000E-04   D at    6  2
       a =  8.250      CL =  0.9311
      Cm = -0.0027     CD =  0.01239   =>   CDf =  0.00598    CDp =  0.00641

 Point added to stored polar  1
 Point written to save file  polar_tmp.dat                                   
 Dump file unspecified or not available
 Calculating wake trajectory ...
 Calculating source influence matrix ...

 Solving BL system ...

 Side 1  free  transition at x/c =  0.0359   29
 Side 2 forced transition at x/c =  1.0000   70

   1   rms: 0.4241E-01   max: -.2396E+00   D at   29  1
       a =  8.500      CL =  0.9517
      Cm = -0.0014     CD =  0.01276   =>   CDf =  0.00581    CDp =  0.00696

 Side 1  free  transition at x/c =  0.0338   30
 Side 2 forced transition at x/c =  1.0000   69

   2   rms: 0.9000E-02   max: 0.6625E-01   D at   29  1
       a =  8.500      CL =  0.9499
      Cm = -0.0011     CD =  0.01295   =>   CDf =  0.00597    CDp =  0.00698

 Side 1  free  transition at x/c =  0.0332   29
 Side 2 forced transition at x/c =  1.0000   69

   3   rms: 0.1186E-01   max: -.1514E+00   D at   29  1
       a =  8.500      CL =  0.9513
      Cm = -0.0013     CD =  0.01280   =>   CDf =  0.00596    CDp =  0.00684

 Side 1  free  transition at x/c =  0.0336   29
 Side 2 forced transition at x/c =  1.0000   69

   4   rms: 0.2230E-03   max: 0.2738E-02   T at   29  1
       a =  8.500      CL =  0.9513
      Cm = -0.0013     CD =  0.01280   =>   CDf =  0.00598    CDp =  0.00683

 Side 1  free  transition at x/c =  0.0336   29
 Side 2 forced transition at x/c =  1.0000   69

   5   rms: 0.1437E-05   max: 0.4548E-05   C at   41  1
       a =  8.500      CL =  0.9513
      Cm = -0.0013     CD =  0.01280   =>   CDf =  0.00598    CDp =  0.00683

 Point added to stored polar  1
 Point written to save file  polar_tmp.dat                                   
 Dump file unspecified or not available
 Calculating wake trajectory ...
 Calculating source influence matrix ...

 Solving BL system ...

 Side 1  free  transition at x/c =  0.0336   29
 Side 2 forced transition at x/c =  1.0000   69

   1   rms: 0.3825E-01   max: -.1989E+00   C at   29  1
       a =  8.750      CL =  0.9735
      Cm = -0.0002     CD =  0.01304   =>   CDf =  0.00598    CDp =  0.00706

 Side 1  free  transition at x/c =  0.0323   29
 Side 2 forced transition at x/c =  1.0000   69

   2   rms: 0.9972E-03   max: 0.6344E-02   C at   69  2
       a =  8.750      CL =  0.9732
      Cm = -0.0002     CD =  0.01307   =>   CDf =  0.00595    CDp =  0.00712

 Side 1  free  transition at x/c =  0.0322   29
 Side 2 forced transition at x/c =  1.0000   69

   3   rms: 0.1224E-04   max: -.1653E-03   D at   29  1
       a =  8.750      CL =  0.9732
      Cm = -0.0002     CD =  0.01307   =>   CDf =  0.00595    CDp =  0.00712

 Point added to stored polar  1
 Point written to save file  polar_tmp.dat                                   
 Dump file unspecified or not available
 Calculating wake trajectory ...
 Calculating source influence matrix ...

 Solving BL system ...

 Side 1  free  transition at x/c =  0.0322   29
 Side 2 forced transition at x/c =  1.0000   69

   1   rms: 0.3811E-01   max: 0.1454E+00   T at   29  1
       a =  9.000      CL =  0.9950
      Cm =  0.0010     CD =  0.01338   =>   CDf =  0.00595    CDp =  0.00743

 Side 1  free  transition at x/c =  0.0306   29
 Side 2 forced transition at x/c =  1.0000   69

   2   rms: 0.2338E-02   max: -.3403E-01   D at   29  1
       a =  9.000      CL =  0.9948
      Cm =  0.0010     CD =  0.01340   =>   CDf =  0.00594    CDp =  0.00746

 Side 1  free  transition at x/c =  0.0307   29
 Side 2 forced transition at x/c =  1.0000   69

   3   rms: 0.3023E-04   max: 0.1425E-03   T at   30  1
       a =  9.000      CL =  0.9948
      Cm =  0.0010     CD =  0.01340   =>   CDf =  0.00594    CDp =  0.00746

 Point added to stored polar  1
 Point written to save file  polar_tmp.dat                                   
 Dump file unspecified or not available
 Calculating wake trajectory ...
 Calculating source influence matrix ...

 Solving BL system ...

 Side 1  free  transition at x/c =  0.0307   29
 Side 2 forced transition at x/c =  1.0000   69

   1   rms: 0.3967E-01   max: -.1733E+00   D at   29  1
       a =  9.250      CL =  1.0159
      Cm =  0.0022     CD =  0.01380   =>   CDf =  0.00574    CDp =  0.00805

 Side 1  free  transition at x/c =  0.0292   30
 Side 2 forced transition at x/c =  1.0000   68

   2   rms: 0.4060E-02   max: -.3420E-01   D at   30  1
       a =  9.250      CL =  1.0145
      Cm =  0.0024     CD =  0.01392   =>   CDf =  0.00594    CDp =  0.00799

 Side 1  free  transition at x/c =  0.0288   30
 Side 2 forced transition at x/c =  1.0000   68

   3   rms: 0.7120E-03   max: -.5246E-02   D at    4  1
       a =  9.250      CL =  1.0144
      Cm =  0.0024     CD =  0.01393   =>   CDf =  0.00594    CDp =  0.00800

 Side 1  free  transition at x/c =  0.0288   30
 Side 2 forced transition at x/c =  1.0000   68

   4   rms: 0.9749E-05   max: 0.6754E-04   D at   29  1
       a =  9.250      CL =  1.0144
      Cm =  0.0024     CD =  0.01393   =>   CDf =  0.00594    CDp =  0.00799

 Point added to stored polar  1
 Point written to save file  polar_tmp.dat                                   
 Dump file unspecified or not available
 Calculating wake trajectory ...
 Calculating source influence matrix ...

 Solving BL system ...

 Side 1  free  transition at x/c =  0.0288   30
 Side 2 forced transition at x/c =  1.0000   68

   1   rms: 0.5110E-01   max: -.1776E+00   C at   68  2
       a =  9.500      CL =  1.0309
      Cm =  0.0043     CD =  0.01480   =>   CDf =  0.00594    CDp =  0.00886

 Side 1  free  transition at x/c =  0.0271   29
 Side 2 forced transition at x/c =  1.0000   68

   2   rms: 0.4199E-01   max: -.4207E+00   D at   29  1
       a =  9.500      CL =  1.0370
      Cm =  0.0033     CD =  0.01419   =>   CDf =  0.00583    CDp =  0.00836

 Side 1  free  transition at x/c =  0.0280   29
 Side 2 forced transition at x/c =  1.0000   68

   3   rms: 0.3642E-02   max: 0.4121E-01   D at   29  1
       a =  9.500      CL =  1.0366
      Cm =  0.0034     CD =  0.01424   =>   CDf =  0.00591    CDp =  0.00833

 Side 1  free  transition at x/c =  0.0278   29
 Side 2 forced transition at x/c =  1.0000   68

   4   rms: 0.1919E-04   max: -.1119E-03   D at   31  1
       a =  9.500      CL =  1.0366
      Cm =  0.0034     CD =  0.01424   =>   CDf =  0.00590    CDp =  0.00834

 Point added to stored polar  1
 Point written to save file  polar_tmp.dat                                   
 Dump file unspecified or not available
 Calculating wake trajectory ...
 Calculating source influence matrix ...

 Solving BL system ...

 Side 1  free  transition at x/c =  0.0278   29
 Side 2 forced transition at x/c =  1.0000   68

   1   rms: 0.3774E-01   max: 0.1461E+00   T at   29  1
       a =  9.750      CL =  1.0591
      Cm =  0.0043     CD =  0.01456   =>   CDf =  0.00591    CDp =  0.00865

 Side 1  free  transition at x/c =  0.0266   29
 Side 2 forced transition at x/c =  1.0000   68

   2   rms: 0.2670E-02   max: -.3412E-01   D at   29  1
       a =  9.750      CL =  1.0590
      Cm =  0.0043     CD =  0.01457   =>   CDf =  0.00588    CDp =  0.00869

 Side 1  free  transition at x/c =  0.0266   29
 Side 2 forced transition at x/c =  1.0000   68

   3   rms: 0.2826E-04   max: 0.3386E-03   D at   29  1
       a =  9.750      CL =  1.0590
      Cm =  0.0043     CD =  0.01457   =>   CDf =  0.00588    CDp =  0.00869

 Point added to stored polar  1
 Point written to save file  polar_tmp.dat                                   
 Dump file unspecified or not available
 Calculating wake trajectory ...
 Calculating source influence matrix ...

 Solving BL system ...

 Side 1  free  transition at x/c =  0.0266   29
 Side 2 forced transition at x/c =  1.0000   68

   1   rms: 0.3819E-01   max: 0.1464E+00   T at   29  1
       a = 10.000      CL =  1.0814
      Cm =  0.0052     CD =  0.01493   =>   CDf =  0.00588    CDp =  0.00905

 Side 1  free  transition at x/c =  0.0255   29
 Side 2 forced transition at x/c =  1.0000   68

   2   rms: 0.8874E-03   max: 0.9145E-02   C at   68  2
       a = 10.000      CL =  1.0809
      Cm =  0.0053     CD =  0.01498   =>   CDf =  0.00587    CDp =  0.00911

 Side 1  free  transition at x/c =  0.0255   29
 Side 2 forced transition at x/c =  1.0000   68

   3   rms: 0.7458E-05   max: 0.2364E-04   C at   68  2
       a = 10.000      CL =  1.0809
      Cm =  0.0053     CD =  0.01498   =>   CDf =  0.00587    CDp =  0.00911

 Point added to stored polar  1
 Point written to save file  polar_tmp.dat                                   
 Dump file unspecified or not available
 Calculating wake trajectory ...
 Calculating source influence matrix ...

 Solving BL system ...

 Side 1  free  transition at x/c =  0.0255   29
 Side 2 forced transition at x/c =  1.0000   68

   1   rms: 0.3953E-01   max: -.1392E+00   D at   29  1
       a = 10.250      CL =  1.1022
      Cm =  0.0063     CD =  0.01548   =>   CDf =  0.00563    CDp =  0.00984

 Side 1  free  transition at x/c =  0.0245   30
 Side 2 forced transition at x/c =  1.0000   67

   2   rms: 0.5097E-02   max: 0.3167E-01   D at   29  1
       a = 10.250      CL =  1.1002
      Cm =  0.0066     CD =  0.01567   =>   CDf =  0.00585    CDp =  0.00982

 Side 1  free  transition at x/c =  0.0242   30
 Side 2 forced transition at x/c =  1.0000   67

   3   rms: 0.8764E-03   max: 0.5193E-02   D at   29  1
       a = 10.250      CL =  1.0999
      Cm =  0.0066     CD =  0.01569   =>   CDf =  0.00585    CDp =  0.00985

 Side 1  free  transition at x/c =  0.0241   29
 Side 2 forced transition at x/c =  1.0000   67

   4   rms: 0.1006E-03   max: -.1074E-02   D at   29  1
       a = 10.250      CL =  1.0999
      Cm =  0.0066     CD =  0.01569   =>   CDf =  0.00585    CDp =  0.00984

 Side 1  free  transition at x/c =  0.0241   29
 Side 2 forced transition at x/c =  1.0000   67

   5   rms: 0.1133E-05   max: -.9828E-05   D at   29  1
       a = 10.250      CL =  1.0999
      Cm =  0.0066     CD =  0.01569   =>   CDf =  0.00585    CDp =  0.00984

 Point added to stored polar  1
 Point written to save file  polar_tmp.dat                                   
 Dump file unspecified or not available
 Calculating wake trajectory ...
 Calculating source influence matrix ...

 Solving BL system ...

 Side 1  free  transition at x/c =  0.0241   29
 Side 2 forced transition at x/c =  1.0000   67

   1   rms: 0.3753E-01   max: -.1818E+00   C at   29  1
       a = 10.500      CL =  1.1233
      Cm =  0.0073     CD =  0.01600   =>   CDf =  0.00585    CDp =  0.01015

 Side 1  free  transition at x/c =  0.0236   29
 Side 2 forced transition at x/c =  1.0000   67

   2   rms: 0.1127E-02   max: 0.1185E-01   D at   29  1
       a = 10.500      CL =  1.1228
      Cm =  0.0074     CD =  0.01604   =>   CDf =  0.00580    CDp =  0.01024

 Side 1  free  transition at x/c =  0.0236   29
 Side 2 forced transition at x/c =  1.0000   67

   3   rms: 0.3250E-05   max: -.1555E-04   C at   30  1
       a = 10.500      CL =  1.1228
      Cm =  0.0074     CD =  0.01604   =>   CDf =  0.00580    CDp =  0.01024

 Point added to stored polar  1
 Point written to save file  polar_tmp.dat                                   
 Dump file unspecified or not available
 Calculating wake trajectory ...
 Calculating source influence matrix ...

 Solving BL system ...

 Side 1  free  transition at x/c =  0.0236   29
 Side 2 forced transition at x/c =  1.0000   67

   1   rms: 0.3725E-01   max: 0.1274E+00   T at   29  1
       a = 10.750      CL =  1.1454
      Cm =  0.0082     CD =  0.01644   =>   CDf =  0.00580    CDp =  0.01064

 Side 1  free  transition at x/c =  0.0228   29
 Side 2 forced transition at x/c =  1.0000   67

   2   rms: 0.8858E-03   max: -.8430E-02   D at   29  1
       a = 10.750      CL =  1.1450
      Cm =  0.0082     CD =  0.01646   =>   CDf =  0.00576    CDp =  0.01070

 Side 1  free  transition at x/c =  0.0228   29
 Side 2 forced transition at x/c =  1.0000   67

   3   rms: 0.2784E-05   max: -.2321E-04   C at   67  2
       a = 10.750      CL =  1.1450
      Cm =  0.0082     CD =  0.01646   =>   CDf =  0.00576    CDp =  0.01070

 Point added to stored polar  1
 Point written to save file  polar_tmp.dat                                   
 Dump file unspecified or not available
 Calculating wake trajectory ...
 Calculating source influence matrix ...

 Solving BL system ...

 Side 1  free  transition at x/c =  0.0228   29
 Side 2 forced transition at x/c =  1.0000   67

   1   rms: 0.3726E-01   max: 0.1209E+00   T at   29  1
       a = 11.000      CL =  1.1671
      Cm =  0.0090     CD =  0.01691   =>   CDf =  0.00576    CDp =  0.01115

 Side 1  free  transition at x/c =  0.0220   29
 Side 2 forced transition at x/c =  1.0000   67

   2   rms: 0.2940E-02   max: -.3330E-01   D at   29  1
       a = 11.000      CL =  1.1669
      Cm =  0.0090     CD =  0.01691   =>   CDf =  0.00572    CDp =  0.01119

 Side 1  free  transition at x/c =  0.0220   29
 Side 2 forced transition at x/c =  1.0000   67

   3   rms: 0.2337E-04   max: 0.2559E-03   D at   29  1
       a = 11.000      CL =  1.1669
      Cm =  0.0090     CD =  0.01691   =>   CDf =  0.00573    CDp =  0.01119

 Point added to stored polar  1
 Point written to save file  polar_tmp.dat                                   
 Dump file unspecified or not available
 Calculating wake trajectory ...
 Calculating source influence matrix ...

 Solving BL system ...

 Side 1  free  transition at x/c =  0.0220   29
 Side 2 forced transition at x/c =  1.0000   67

   1   rms: 0.3753E-01   max: 0.1274E+00   T at   29  1
       a = 11.250      CL =  1.1885
      Cm =  0.0099     CD =  0.01740   =>   CDf =  0.00546    CDp =  0.01194

 Side 1  free  transition at x/c =  0.0213   30
 Side 2 forced transition at x/c =  1.0000   66

   2   rms: 0.1771E-02   max: -.1779E-01   D at    3  1
       a = 11.250      CL =  1.1878
      Cm =  0.0100     CD =  0.01744   =>   CDf =  0.00570    CDp =  0.01174

 Side 1  free  transition at x/c =  0.0213   30
 Side 2 forced transition at x/c =  1.0000   66

   3   rms: 0.3845E-03   max: -.4452E-02   D at    4  1
       a = 11.250      CL =  1.1878
      Cm =  0.0100     CD =  0.01744   =>   CDf =  0.00570    CDp =  0.01174

 Side 1  free  transition at x/c =  0.0213   30
 Side 2 forced transition at x/c =  1.0000   66

   4   rms: 0.3442E-06   max: -.2201E-05   D at    8  1
       a = 11.250      CL =  1.1878
      Cm =  0.0100     CD =  0.01744   =>   CDf =  0.00570    CDp =  0.01174

 Point added to stored polar  1
 Point written to save file  polar_tmp.dat                                   
 Dump file unspecified or not available
 Calculating wake trajectory ...
 Calculating source influence matrix ...

 Solving BL system ...

 Side 1  free  transition at x/c =  0.0213   30
 Side 2 forced transition at x/c =  1.0000   66

   1   rms: 0.3844E-01   max: 0.1218E+00   T at   30  1
       a = 11.500      CL =  1.2079
      Cm =  0.0110     CD =  0.01807   =>   CDf =  0.00570    CDp =  0.01237

 Side 1  free  transition at x/c =  0.0205   30
 Side 2 forced transition at x/c =  1.0000   66

   2   rms: 0.4343E-02   max: 0.2118E-01   D at   29  1
       a = 11.500      CL =  1.2051
      Cm =  0.0113     CD =  0.01828   =>   CDf =  0.00566    CDp =  0.01261

 Side 1  free  transition at x/c =  0.0204   30
 Side 2 forced transition at x/c =  1.0000   66

   3   rms: 0.3577E-03   max: 0.1965E-02   D at   29  1
       a = 11.500      CL =  1.2049
      Cm =  0.0114     CD =  0.01829   =>   CDf =  0.00566    CDp =  0.01263

 Side 1  free  transition at x/c =  0.0204   30
 Side 2 forced transition at x/c =  1.0000   66

   4   rms: 0.3704E-05   max: -.1593E-04   C at   66  2
       a = 11.500      CL =  1.2049
      Cm =  0.0114     CD =  0.01829   =>   CDf =  0.00566    CDp =  0.01263

 Point added to stored polar  1
 Point written to save file  polar_tmp.dat                                   
 Dump file unspecified or not available
 Calculating wake trajectory ...
 Calculating source influence matrix ...

 Solving BL system ...

 Side 1  free  transition at x/c =  0.0204   30
 Side 2 forced transition at x/c =  1.0000   66

   1   rms: 0.5048E-01   max: -.1443E+00   C at   66  2
       a = 11.750      CL =  1.2170
      Cm =  0.0134     CD =  0.01962   =>   CDf =  0.00567    CDp =  0.01395

 Side 1  free  transition at x/c =  0.0196   29
 Side 2 forced transition at x/c =  1.0000   66

   2   rms: 0.3053E-01   max: -.2683E+00   D at   29  1
       a = 11.750      CL =  1.2244
      Cm =  0.0125     CD =  0.01885   =>   CDf =  0.00553    CDp =  0.01332

 Side 1  free  transition at x/c =  0.0199   29
 Side 2 forced transition at x/c =  1.0000   66

   3   rms: 0.1542E-02   max: 0.1105E-01   D at   29  1
       a = 11.750      CL =  1.2251
      Cm =  0.0124     CD =  0.01885   =>   CDf =  0.00561    CDp =  0.01324

 Side 1  free  transition at x/c =  0.0199   29
 Side 2 forced transition at x/c =  1.0000   66

   4   rms: 0.1091E-04   max: -.6915E-04   C at   66  2
       a = 11.750      CL =  1.2251
      Cm =  0.0124     CD =  0.01884   =>   CDf =  0.00560    CDp =  0.01324

 Point added to stored polar  1
 Point written to save file  polar_tmp.dat                                   
 Dump file unspecified or not available
 Calculating wake trajectory ...
 Calculating source influence matrix ...

 Solving BL system ...

 Side 1  free  transition at x/c =  0.0199   29
 Side 2 forced transition at x/c =  1.0000   66

   1   rms: 0.3616E-01   max: 0.1257E+00   T at   29  1
       a = 12.000      CL =  1.2465
      Cm =  0.0132     CD =  0.01931   =>   CDf =  0.00560    CDp =  0.01370

 Side 1  free  transition at x/c =  0.0194   29
 Side 2 forced transition at x/c =  1.0000   66

   2   rms: 0.9520E-03   max: 0.2976E-02   D at   68  2
       a = 12.000      CL =  1.2457
      Cm =  0.0133     CD =  0.01934   =>   CDf =  0.00555    CDp =  0.01379

 Side 1  free  transition at x/c =  0.0194   29
 Side 2 forced transition at x/c =  1.0000   66

   3   rms: 0.3936E-05   max: 0.1219E-04   D at   71  2
       a = 12.000      CL =  1.2457
      Cm =  0.0133     CD =  0.01934   =>   CDf =  0.00555    CDp =  0.01379

 Point added to stored polar  1
 Point written to save file  polar_tmp.dat                                   
 Dump file unspecified or not available
 Calculating wake trajectory ...
 Calculating source influence matrix ...

 Solving BL system ...

 Side 1  free  transition at x/c =  0.0194   29
 Side 2 forced transition at x/c =  1.0000   66

   1   rms: 0.3585E-01   max: 0.1083E+00   T at   29  1
       a = 12.250      CL =  1.2659
      Cm =  0.0142     CD =  0.01989   =>   CDf =  0.00524    CDp =  0.01465

 Side 1  free  transition at x/c =  0.0188   30
 Side 2 forced transition at x/c =  1.0000   65

   2   rms: 0.1658E-02   max: -.2520E-01   D at    2  1
       a = 12.250      CL =  1.2652
      Cm =  0.0143     CD =  0.01990   =>   CDf =  0.00549    CDp =  0.01441

 Side 1  free  transition at x/c =  0.0188   30
 Side 2 forced transition at x/c =  1.0000   65

   3   rms: 0.3886E-03   max: -.4684E-02   D at    4  1
       a = 12.250      CL =  1.2652
      Cm =  0.0143     CD =  0.01990   =>   CDf =  0.00549    CDp =  0.01441

 Side 1  free  transition at x/c =  0.0188   30
 Side 2 forced transition at x/c =  1.0000   65

   4   rms: 0.5493E-06   max: 0.8684E-05   D at    2  1
       a = 12.250      CL =  1.2652
      Cm =  0.0143     CD =  0.01990   =>   CDf =  0.00549    CDp =  0.01441

 Point added to stored polar  1
 Point written to save file  polar_tmp.dat                                   
 Dump file unspecified or not available
 Calculating wake trajectory ...
 Calculating source influence matrix ...

 Solving BL system ...

 Side 1  free  transition at x/c =  0.0188   30
 Side 2 forced transition at x/c =  1.0000   65

   1   rms: 0.3569E-01   max: 0.9939E-01   T at   30  1
       a = 12.500      CL =  1.2844
      Cm =  0.0154     CD =  0.02051   =>   CDf =  0.00549    CDp =  0.01502

 Side 1  free  transition at x/c =  0.0183   30
 Side 2 forced transition at x/c =  1.0000   65

   2   rms: 0.2198E-02   max: -.2150E-01   D at   30  1
       a = 12.500      CL =  1.2838
      Cm =  0.0155     CD =  0.02051   =>   CDf =  0.00544    CDp =  0.01507

 Side 1  free  transition at x/c =  0.0183   30
 Side 2 forced transition at x/c =  1.0000   65

   3   rms: 0.2610E-04   max: 0.9823E-04   C at   65  2
       a = 12.500      CL =  1.2838
      Cm =  0.0155     CD =  0.02051   =>   CDf =  0.00545    CDp =  0.01506

 Point added to stored polar  1
 Point written to save file  polar_tmp.dat                                   
 Dump file unspecified or not available
 Calculating wake trajectory ...
 Calculating source influence matrix ...

 Solving BL system ...

 Side 1  free  transition at x/c =  0.0183   30
 Side 2 forced transition at x/c =  1.0000   65

   1   rms: 0.3554E-01   max: 0.1023E+00   T at   30  1
       a = 12.750      CL =  1.3022
      Cm =  0.0166     CD =  0.02116   =>   CDf =  0.00545    CDp =  0.01571

 Side 1  free  transition at x/c =  0.0178   30
 Side 2 forced transition at x/c =  1.0000   65

   2   rms: 0.1786E-02   max: -.1415E-01   D at   30  1
       a = 12.750      CL =  1.3012
      Cm =  0.0167     CD =  0.02117   =>   CDf =  0.00540    CDp =  0.01577

 Side 1  free  transition at x/c =  0.0179   30
 Side 2 forced transition at x/c =  1.0000   65

   3   rms: 0.2041E-04   max: -.9092E-04   D at   97  1
       a = 12.750      CL =  1.3012
      Cm =  0.0167     CD =  0.02118   =>   CDf =  0.00540    CDp =  0.01577

 Point added to stored polar  1
 Point written to save file  polar_tmp.dat                                   
 Dump file unspecified or not available
 Calculating wake trajectory ...
 Calculating source influence matrix ...

 Solving BL system ...

 Side 1  free  transition at x/c =  0.0179   30
 Side 2 forced transition at x/c =  1.0000   65

   1   rms: 0.3560E-01   max: -.9882E-01   C at   65  2
       a = 13.000      CL =  1.3178
      Cm =  0.0180     CD =  0.02193   =>   CDf =  0.00541    CDp =  0.01652

 Side 1  free  transition at x/c =  0.0174   30
 Side 2 forced transition at x/c =  1.0000   65

   2   rms: 0.2907E-02   max: 0.1052E-01   D at   97  1
       a = 13.000      CL =  1.3155
      Cm =  0.0183     CD =  0.02201   =>   CDf =  0.00536    CDp =  0.01665

 Side 1  free  transition at x/c =  0.0174   30
 Side 2 forced transition at x/c =  1.0000   65

   3   rms: 0.1399E-03   max: 0.7666E-03   D at   67  2
       a = 13.000      CL =  1.3153
      Cm =  0.0183     CD =  0.02201   =>   CDf =  0.00536    CDp =  0.01665

 Side 1  free  transition at x/c =  0.0174   30
 Side 2 forced transition at x/c =  1.0000   65

   4   rms: 0.8482E-06   max: 0.4542E-05   D at   97  1
       a = 13.000      CL =  1.3153
      Cm =  0.0183     CD =  0.02201   =>   CDf =  0.00536    CDp =  0.01665

 Point added to stored polar  1
 Point written to save file  polar_tmp.dat                                   
 Dump file unspecified or not available
 Calculating wake trajectory ...
 Calculating source influence matrix ...

 Solving BL system ...

 Side 1  free  transition at x/c =  0.0174   30
 Side 2 forced transition at x/c =  1.0000   65

   1   rms: 0.3632E-01   max: -.1208E+00   C at   65  2
       a = 13.250      CL =  1.3261
      Cm =  0.0204     CD =  0.02300   =>   CDf =  0.00536    CDp =  0.01764

 Side 1  free  transition at x/c =  0.0170   30
 Side 2 forced transition at x/c =  1.0000   65

   2   rms: 0.7376E-02   max: -.5856E-01   C at   65  2
       a = 13.250      CL =  1.3201
      Cm =  0.0212     CD =  0.02320   =>   CDf =  0.00529    CDp =  0.01791

 Side 1  free  transition at x/c =  0.0169   30
 Side 2 forced transition at x/c =  1.0000   65

   3   rms: 0.2171E-03   max: 0.3694E-02   D at   95  1
       a = 13.250      CL =  1.3200
      Cm =  0.0212     CD =  0.02321   =>   CDf =  0.00529    CDp =  0.01792

 Side 1  free  transition at x/c =  0.0169   30
 Side 2 forced transition at x/c =  1.0000   65

   4   rms: 0.3351E-05   max: 0.5384E-04   D at   95  1
       a = 13.250      CL =  1.3200
      Cm =  0.0212     CD =  0.02321   =>   CDf =  0.00529    CDp =  0.01792

 Point added to stored polar  1
 Point written to save file  polar_tmp.dat                                   
 Dump file unspecified or not available
 Calculating wake trajectory ...
 Calculating source influence matrix ...

 Solving BL system ...

 Side 1  free  transition at x/c =  0.0169   30
 Side 2 forced transition at x/c =  1.0000   65

   1   rms: 0.4529E-01   max: -.2110E+00   C at   65  2
       a = 13.500      CL =  1.3198
      Cm =  0.0246     CD =  0.02486   =>   CDf =  0.00529    CDp =  0.01957

 Side 1  free  transition at x/c =  0.0166   29
 Side 2 forced transition at x/c =  1.0000   65

   2   rms: 0.1805E-01   max: -.1305E+00   D at   29  1
       a = 13.500      CL =  1.3274
      Cm =  0.0236     CD =  0.02422   =>   CDf =  0.00516    CDp =  0.01905

 Side 1  free  transition at x/c =  0.0166   29
 Side 2 forced transition at x/c =  1.0000   65

   3   rms: 0.1237E-02   max: 0.5942E-02   C at   65  2
       a = 13.500      CL =  1.3284
      Cm =  0.0235     CD =  0.02422   =>   CDf =  0.00520    CDp =  0.01902

 Side 1  free  transition at x/c =  0.0166   29
 Side 2 forced transition at x/c =  1.0000   65

   4   rms: 0.1595E-04   max: 0.1854E-03   D at   93  1
       a = 13.500      CL =  1.3284
      Cm =  0.0235     CD =  0.02422   =>   CDf =  0.00520    CDp =  0.01902

 Point added to stored polar  1
 Point written to save file  polar_tmp.dat                                   
 Dump file unspecified or not available
 Calculating wake trajectory ...
 Calculating source influence matrix ...

 Solving BL system ...

 Side 1  free  transition at x/c =  0.0166   29
 Side 2 forced transition at x/c =  1.0000   65

   1   rms: 0.3295E-01   max: -.1044E+00   C at   65  2
       a = 13.750      CL =  1.3420
      Cm =  0.0250     CD =  0.02503   =>   CDf =  0.00486    CDp =  0.02018

 Side 1  free  transition at x/c =  0.0164   30
 Side 2 forced transition at x/c =  1.0000   64

   2   rms: 0.2440E-02   max: 0.1650E-01   D at   94  1
       a = 13.750      CL =  1.3404
      Cm =  0.0251     CD =  0.02508   =>   CDf =  0.00512    CDp =  0.01996

 Side 1  free  transition at x/c =  0.0164   30
 Side 2 forced transition at x/c =  1.0000   64

   3   rms: 0.3713E-03   max: -.4223E-02   D at    4  1
       a = 13.750      CL =  1.3404
      Cm =  0.0251     CD =  0.02507   =>   CDf =  0.00512    CDp =  0.01996

 Side 1  free  transition at x/c =  0.0164   30
 Side 2 forced transition at x/c =  1.0000   64

   4   rms: 0.1004E-05   max: -.6246E-05   C at   64  2
       a = 13.750      CL =  1.3404
      Cm =  0.0251     CD =  0.02507   =>   CDf =  0.00512    CDp =  0.01996

 Point added to stored polar  1
 Point written to save file  polar_tmp.dat                                   
 Dump file unspecified or not available
 Calculating wake trajectory ...
[...]
 MRCHDU: Convergence failed at  37  side 2    Res =  0.7275E+02
 MRCHDU: Convergence failed at  38  side 2    Res =  0.1377E+01
 MRCHDU: Convergence failed at  39  side 2    Res =  0.9653E+02
 MRCHDU: Convergence failed at  40  side 2    Res =  0.3379E+00
 Side 1 forced transition at x/c =  1.0000   64
 Side 2  free  transition at x/c =  0.0129   29

  36   rms: 0.2623E+00   max: 0.1081E+01   D at   40  2   RLX: 0.629
       a =-21.250      CL = -1.1325
      Cm =  0.0776     CD =  0.18136   =>   CDf =  0.00184    CDp =  0.17952

 Side 1 forced transition at x/c =  1.0000   64
 Side 2  free  transition at x/c =  0.0130   29

  37   rms: 0.1710E+00   max: -.4853E+00   D at   41  2   RLX: 0.793
       a =-21.250      CL = -1.0811
      Cm =  0.0439     CD =  0.17172   =>   CDf =  0.00182    CDp =  0.16990

 Side 1 forced transition at x/c =  1.0000   63
 Side 2  free  transition at x/c =  0.0127   30

  38   rms: 0.5793E+00   max: 0.2961E+01   D at   41  2   RLX: 0.507
       a =-21.250      CL = -1.0079
      Cm =  0.0682     CD =  0.23179   =>   CDf =  0.00232    CDp =  0.22948

 MRCHDU: Convergence failed at  37  side 2    Res =  0.9116E+00
 MRCHDU: Convergence failed at  38  side 2    Res =  0.2496E+01
 MRCHDU: Convergence failed at  39  side 2    Res =  0.5721E+01
 MRCHDU: Convergence failed at  40  side 2    Res =  0.2192E+02
 Side 1 forced transition at x/c =  1.0000   64
 Side 2  free  transition at x/c =  0.0129   29

  39   rms: 0.2176E+00   max: 0.8947E+00   D at   40  2   RLX: 0.778
       a =-21.250      CL = -1.0791
      Cm =  0.0613     CD =  0.17993   =>   CDf =  0.00186    CDp =  0.17806

 Side 1 forced transition at x/c =  1.0000   64
 Side 2  free  transition at x/c =  0.0129   29

  40   rms: 0.5175E+00   max: -.2340E+01   D at   39  2   RLX: 0.214
       a =-21.250      CL = -1.0900
      Cm =  0.0473     CD =  0.17369   =>   CDf =  0.00174    CDp =  0.17195

 Side 1 forced transition at x/c =  1.0000   63
 Side 2  free  transition at x/c =  0.0129   30

  41   rms: 0.1264E+00   max: 0.7551E+00   D at   41  2
       a =-21.250      CL = -1.0349
      Cm =  0.0516     CD =  0.19575   =>   CDf =  0.00235    CDp =  0.19340

 MRCHDU: Convergence failed at  39  side 2    Res =  0.1931E+01
 MRCHDU: Convergence failed at  40  side 2    Res =  0.6050E+00
 Side 1 forced transition at x/c =  1.0000   64
 Side 2  free  transition at x/c =  0.0127   29

  42   rms: 0.8766E-01   max: 0.6834E+00   D at   40  2
       a =-21.250      CL = -1.0407
      Cm =  0.0478     CD =  0.18461   =>   CDf =  0.00173    CDp =  0.18287

 Side 1 forced transition at x/c =  1.0000   63
 Side 2  free  transition at x/c =  0.0126   30

  43   rms: 0.1244E+01   max: -.5822E+01   D at   41  2   RLX: 0.086
       a =-21.250      CL = -1.1125
      Cm =  0.0517     CD =  0.17184   =>   CDf =  0.00194    CDp =  0.16990

 Side 1 forced transition at x/c =  1.0000   63
 Side 2  free  transition at x/c =  0.0127   30

  44   rms: 0.2388E+00   max: 0.1361E+01   D at   42  2
       a =-21.250      CL = -1.0060
      Cm =  0.0586     CD =  0.21481   =>   CDf =  0.00234    CDp =  0.21247

 MRCHDU: Convergence failed at  38  side 2    Res =  0.1363E+02
 MRCHDU: Convergence failed at  39  side 2    Res =  0.9535E+00
 MRCHDU: Convergence failed at  40  side 2    Res =  0.5108E+01
 Side 1 forced transition at x/c =  1.0000   64
 Side 2  free  transition at x/c =  0.0128   29

  45   rms: 0.1179E+00   max: 0.1154E+01   D at   40  2
       a =-21.250      CL = -1.0172
      Cm =  0.0523     CD =  0.19437   =>   CDf =  0.00187    CDp =  0.19250
 VISCAL:  Convergence failed
 Calculating wake trajectory ...
 Calculating source influence matrix ...

 Solving BL system ...

 Side 1 forced transition at x/c =  1.0000   64
 Side 2  free  transition at x/c =  0.0126   29

   1   rms: 0.2382E+00   max: -.1104E+01   D at   37  2   RLX: 0.346
       a =-21.500      CL = -1.0701
      Cm =  0.0550     CD =  0.18289   =>   CDf =  0.00167    CDp =  0.18122

 Side 1 forced transition at x/c =  1.0000   63
 Side 2  free  transition at x/c =  0.0127   30

   2   rms: 0.3692E+00   max: 0.2448E+01   D at   41  2   RLX: 0.613
       a =-21.500      CL = -1.0076
      Cm =  0.0686     CD =  0.22623   =>   CDf =  0.00219    CDp =  0.22404

 MRCHDU: Convergence failed at  36  side 2    Res =  0.2760E+01
 MRCHDU: Convergence failed at  37  side 2    Res =  0.2616E+01
 MRCHDU: Convergence failed at  38  side 2    Res =  0.2012E+01
 MRCHDU: Convergence failed at  39  side 2    Res =  0.2545E+01
 MRCHDU: Convergence failed at  40  side 2    Res =  0.1203E+01
 Side 1 forced transition at x/c =  1.0000   64
 Side 2  free  transition at x/c =  0.0126   29

   3   rms: 0.2590E+00   max: 0.1190E+01   D at   40  2   RLX: 0.718
       a =-21.500      CL = -1.1226
      Cm =  0.0740     CD =  0.18235   =>   CDf =  0.00165    CDp =  0.18070

 Side 1 forced transition at x/c =  1.0000   63
 Side 2  free  transition at x/c =  0.0127   30

   4   rms: 0.1464E+00   max: 0.2183E+01   D at    2  2   RLX: 0.477
       a =-21.500      CL = -1.0693
      Cm =  0.0571     CD =  0.19133   =>   CDf =  0.00195    CDp =  0.18938

 Side 1 forced transition at x/c =  1.0000   63
 Side 2  free  transition at x/c =  0.0126   30

   5   rms: 0.6646E+00   max: -.3179E+01   D at   40  2   RLX: 0.157
       a =-21.500      CL = -1.1086
      Cm =  0.0527     CD =  0.17594   =>   CDf =  0.00193    CDp =  0.17400

 Side 1 forced transition at x/c =  1.0000   63
 Side 2  free  transition at x/c =  0.0127   30

   6   rms: 0.6889E+00   max: 0.3462E+01   D at   41  2   RLX: 0.433
       a =-21.500      CL = -1.0202
      Cm =  0.0726     CD =  0.23598   =>   CDf =  0.00232    CDp =  0.23366

 MRCHDU: Convergence failed at  37  side 2    Res =  0.9508E+00
 MRCHDU: Convergence failed at  38  side 2    Res =  0.2290E+01
 MRCHDU: Convergence failed at  39  side 2    Res =  0.5464E+01
 MRCHDU: Convergence failed at  40  side 2    Res =  0.4423E+01
 Side 1 forced transition at x/c =  1.0000   64
 Side 2  free  transition at x/c =  0.0128   29

   7   rms: 0.2192E+00   max: 0.1048E+01   D at   40  2   RLX: 0.888
       a =-21.500      CL = -1.0629
      Cm =  0.0564     CD =  0.18089   =>   CDf =  0.00167    CDp =  0.17923

 Side 1 forced transition at x/c =  1.0000   63
 Side 2  free  transition at x/c =  0.0126   30

   8   rms: 0.2188E+00   max: -.9645E+00   D at   40  2   RLX: 0.518
       a =-21.500      CL = -1.1054
      Cm =  0.0537     CD =  0.17685   =>   CDf =  0.00190    CDp =  0.17495

 Side 1 forced transition at x/c =  1.0000   63
 Side 2  free  transition at x/c =  0.0127   30

   9   rms: 0.8699E+00   max: 0.4591E+01   D at   41  2   RLX: 0.327
       a =-21.500      CL = -1.0459
      Cm =  0.0780     CD =  0.23499   =>   CDf =  0.00229    CDp =  0.23270

 MRCHDU: Convergence failed at  37  side 2    Res =  0.1717E+01
 MRCHDU: Convergence failed at  38  side 2    Res =  0.6892E+01
 MRCHDU: Convergence failed at  39  side 2    Res =  0.2264E+01
 MRCHDU: Convergence failed at  40  side 2    Res =  0.1902E+01
 Side 1 forced transition at x/c =  1.0000   64
 Side 2  free  transition at x/c =  0.0128   29

  10   rms: 0.2065E+00   max: 0.1106E+01   D at   40  2   RLX: 0.970
       a =-21.500      CL = -1.0432
      Cm =  0.0516     CD =  0.18109   =>   CDf =  0.00166    CDp =  0.17943

 Side 1 forced transition at x/c =  1.0000   63
 Side 2  free  transition at x/c =  0.0125   30

  11   rms: 0.1947E+00   max: -.9452E+00   D at   39  2   RLX: 0.529
       a =-21.500      CL = -1.1044
      Cm =  0.0561     CD =  0.17872   =>   CDf =  0.00188    CDp =  0.17684

 Side 1 forced transition at x/c =  1.0000   63
 Side 2  free  transition at x/c =  0.0127   30

  12   rms: 0.7541E+00   max: 0.4208E+01   D at   41  2   RLX: 0.356
       a =-21.500      CL = -1.0475
      Cm =  0.0783     CD =  0.23221   =>   CDf =  0.00225    CDp =  0.22996

 MRCHDU: Convergence failed at  36  side 2    Res =  0.2787E+01
 MRCHDU: Convergence failed at  37  side 2    Res =  0.4919E+01
 MRCHDU: Convergence failed at  38  side 2    Res =  0.1932E+01
 MRCHDU: Convergence failed at  39  side 2    Res =  0.3633E+01
 MRCHDU: Convergence failed at  40  side 2    Res =  0.1180E+01
 Side 1 forced transition at x/c =  1.0000   64
 Side 2  free  transition at x/c =  0.0127   29

  13   rms: 0.2597E+00   max: 0.1220E+01   D at   40  2   RLX: 0.794
       a =-21.500      CL = -1.1069
      Cm =  0.0667     CD =  0.17897   =>   CDf =  0.00167    CDp =  0.17730

 Side 1 forced transition at x/c =  1.0000   63
 Side 2  free  transition at x/c =  0.0126   30

  14   rms: 0.2918E+01   max: 0.1663E+02   D at   40  2   RLX: 0.071
       a =-21.500      CL = -1.0384
      Cm =  0.0781     CD =  0.23098   =>   CDf =  0.00217    CDp =  0.22882

 MRCHDU: Convergence failed at  38  side 2    Res =  0.9615E+01
 MRCHDU: Convergence failed at  39  side 2    Res =  0.3905E+01
 Side 1 forced transition at x/c =  1.0000   64
 Side 2  free  transition at x/c =  0.0127   29

  15   rms: 0.1189E+01   max: -.6733E+01   D at   36  2   RLX: 0.074
       a =-21.500      CL = -1.1553
      Cm =  0.0955     CD =  0.19659   =>   CDf =  0.00180    CDp =  0.19479

 Side 1 forced transition at x/c =  1.0000   64
 Side 2  free  transition at x/c =  0.0132   29

  16   rms: 0.1996E+00   max: 0.5475E+00   D at   39  2   RLX: 0.786
       a =-21.500      CL = -1.0722
      Cm =  0.0533     CD =  0.17695   =>   CDf =  0.00174    CDp =  0.17520

 Side 1 forced transition at x/c =  1.0000   63
 Side 2  free  transition at x/c =  0.0127   30

  17   rms: 0.9374E+00   max: -.4618E+01   D at   40  2   RLX: 0.108
       a =-21.500      CL = -1.1426
      Cm =  0.0567     CD =  0.17759   =>   CDf =  0.00198    CDp =  0.17562

 Side 1 forced transition at x/c =  1.0000   63
 Side 2  free  transition at x/c =  0.0127   30

  18   rms: 0.2651E+00   max: 0.1389E+01   D at   42  2
       a =-21.500      CL = -1.0083
      Cm =  0.0612     CD =  0.21630   =>   CDf =  0.00238    CDp =  0.21393

 MRCHDU: Convergence failed at  38  side 2    Res =  0.1386E+01
 MRCHDU: Convergence failed at  39  side 2    Res =  0.1540E+02
 MRCHDU: Convergence failed at  40  side 2    Res =  0.1023E+03
 Side 1 forced transition at x/c =  1.0000   64
 Side 2  free  transition at x/c =  0.0127   29

  19   rms: 0.1404E+00   max: 0.1016E+01   D at   40  2
       a =-21.500      CL = -1.0353
      Cm =  0.0512     CD =  0.18860   =>   CDf =  0.00167    CDp =  0.18693

 Side 1 forced transition at x/c =  1.0000   63
 Side 2  free  transition at x/c =  0.0124   30

  20   rms: 0.2563E+00   max: -.1229E+01   D at   39  2   RLX: 0.407
       a =-21.500      CL = -1.1097
      Cm =  0.0575     CD =  0.17822   =>   CDf =  0.00188    CDp =  0.17635

 Side 1 forced transition at x/c =  1.0000   63
 Side 2  free  transition at x/c =  0.0126   30

  21   rms: 0.4185E+02   max: -.2241E+03   D at   41  2   RLX: 0.002
       a =-21.500      CL = -1.1718
      Cm =  0.0586     CD =  0.17425   =>   CDf =  0.00202    CDp =  0.17223

 Side 1 forced transition at x/c =  1.0000   63
 Side 2  free  transition at x/c =  0.0126   30

  22   rms: 0.2727E+00   max: 0.1487E+01   D at   43  2
       a =-21.500      CL = -1.0171
      Cm =  0.0597     CD =  0.21425   =>   CDf =  0.00243    CDp =  0.21183

 MRCHDU: Convergence failed at  38  side 2    Res =  0.3548E+01
 MRCHDU: Convergence failed at  39  side 2    Res =  0.3436E+01
 MRCHDU: Convergence failed at  40  side 2    Res =  0.2497E+01
 MRCHDU: Convergence failed at  41  side 2    Res =  0.4079E+01
 Side 1 forced transition at x/c =  1.0000   64
 Side 2  free  transition at x/c =  0.0127   29

  23   rms: 0.1960E+00   max: 0.1004E+01   D at   41  2   RLX: 0.966
       a =-21.500      CL = -1.0724
      Cm =  0.0470     CD =  0.17617   =>   CDf =  0.00170    CDp =  0.17447

 Side 1 forced transition at x/c =  1.0000   63
 Side 2  free  transition at x/c =  0.0125   30

  24   rms: 0.9774E+00   max: 0.5402E+01   D at   42  2   RLX: 0.278
       a =-21.500      CL = -1.0444
      Cm =  0.0781     CD =  0.23213   =>   CDf =  0.00221    CDp =  0.22991

 MRCHDU: Convergence failed at  36  side 2    Res =  0.2429E+01
 MRCHDU: Convergence failed at  37  side 2    Res =  0.2139E+01
 MRCHDU: Convergence failed at  38  side 2    Res =  0.1845E+01
 MRCHDU: Convergence failed at  39  side 2    Res =  0.6385E+01
 Side 1 forced transition at x/c =  1.0000   64
 Side 2  free  transition at x/c =  0.0126   29

  25   rms: 0.1853E+00   max: 0.1383E+01   D at   39  2
       a =-21.500      CL = -1.0112
      Cm =  0.0552     CD =  0.19483   =>   CDf =  0.00182    CDp =  0.19301

 Side 1 forced transition at x/c =  1.0000   64
 Side 2  free  transition at x/c =  0.0123   29

  26   rms: 0.2013E+00   max: -.1013E+01   D at   36  2   RLX: 0.494
       a =-21.500      CL = -1.0934
      Cm =  0.0660     CD =  0.18619   =>   CDf =  0.00161    CDp =  0.18458

 Side 1 forced transition at x/c =  1.0000   63
 Side 2  free  transition at x/c =  0.0127   30

  27   rms: 0.4021E+00   max: -.1999E+01   D at   39  2   RLX: 0.250
       a =-21.500      CL = -1.1256
      Cm =  0.0601     CD =  0.17955   =>   CDf =  0.00190    CDp =  0.17764

 Side 1 forced transition at x/c =  1.0000   63
 Side 2  free  transition at x/c =  0.0128   30

  28   rms: 0.1153E+01   max: 0.6285E+01   D at   41  2   RLX: 0.239
       a =-21.500      CL = -1.0531
      Cm =  0.0795     CD =  0.23560   =>   CDf =  0.00228    CDp =  0.23332

 MRCHDU: Convergence failed at  37  side 2    Res =  0.9965E+01
 MRCHDU: Convergence failed at  38  side 2    Res =  0.2760E+01
 MRCHDU: Convergence failed at  39  side 2    Res =  0.6312E+01
 MRCHDU: Convergence failed at  40  side 2    Res =  0.1498E+01
 Side 1 forced transition at x/c =  1.0000   64
 Side 2  free  transition at x/c =  0.0129   29

  29   rms: 0.2044E+00   max: 0.1112E+01   D at   40  2   RLX: 0.957
       a =-21.500      CL = -1.0453
      Cm =  0.0526     CD =  0.18114   =>   CDf =  0.00166    CDp =  0.17948

 Side 1 forced transition at x/c =  1.0000   63
 Side 2  free  transition at x/c =  0.0125   30

  30   rms: 0.1898E+00   max: -.9186E+00   D at   39  2   RLX: 0.544
       a =-21.500      CL = -1.1022
      Cm =  0.0561     CD =  0.17889   =>   CDf =  0.00188    CDp =  0.17701

 Side 1 forced transition at x/c =  1.0000   63
 Side 2  free  transition at x/c =  0.0127   30

  31   rms: 0.6222E+00   max: 0.3523E+01   D at   41  2   RLX: 0.426
       a =-21.500      CL = -1.0415
      Cm =  0.0767     CD =  0.23042   =>   CDf =  0.00224    CDp =  0.22818

 MRCHDU: Convergence failed at  36  side 2    Res =  0.3003E+01
 MRCHDU: Convergence failed at  37  side 2    Res =  0.6443E+01
 MRCHDU: Convergence failed at  38  side 2    Res =  0.1329E+01
 MRCHDU: Convergence failed at  39  side 2    Res =  0.3525E+01
 MRCHDU: Convergence failed at  40  side 2    Res =  0.1191E+01
 Side 1 forced transition at x/c =  1.0000   64
 Side 2  free  transition at x/c =  0.0127   29

  32   rms: 0.2584E+00   max: 0.1224E+01   D at   40  2   RLX: 0.788
       a =-21.500      CL = -1.1079
      Cm =  0.0674     CD =  0.17955   =>   CDf =  0.00166    CDp =  0.17789

 Side 1 forced transition at x/c =  1.0000   63
 Side 2  free  transition at x/c =  0.0127   30

  33   rms: 0.9053E+00   max: 0.5632E+01   D at   40  2   RLX: 0.206
       a =-21.500      CL = -1.0356
      Cm =  0.0745     CD =  0.22620   =>   CDf =  0.00216    CDp =  0.22404

 MRCHDU: Convergence failed at  38  side 2    Res =  0.8806E+01
 MRCHDU: Convergence failed at  39  side 2    Res =  0.4417E+01
 Side 1 forced transition at x/c =  1.0000   64
 Side 2  free  transition at x/c =  0.0126   29

  34   rms: 0.1355E+02   max: -.7984E+02   D at   39  2   RLX: 0.006
       a =-21.500      CL = -1.1784
      Cm =  0.0997     CD =  0.19545   =>   CDf =  0.00180    CDp =  0.19365

 Side 1 forced transition at x/c =  1.0000   64
 Side 2  free  transition at x/c =  0.0132   29

  35   rms: 0.1964E+00   max: -.5334E+00   D at   37  2   RLX: 0.799
       a =-21.500      CL = -1.0768
      Cm =  0.0529     CD =  0.17559   =>   CDf =  0.00175    CDp =  0.17384

 Side 1 forced transition at x/c =  1.0000   63
 Side 2  free  transition at x/c =  0.0127   30

  36   rms: 0.1278E+01   max: 0.6662E+01   D at   40  2   RLX: 0.225
       a =-21.500      CL = -1.0343
      Cm =  0.0822     CD =  0.24247   =>   CDf =  0.00221    CDp =  0.24026

 MRCHDU: Convergence failed at  36  side 2    Res =  0.3057E+01
 MRCHDU: Convergence failed at  37  side 2    Res =  0.3846E+01
 MRCHDU: Convergence failed at  38  side 2    Res =  0.5037E+01
 MRCHDU: Convergence failed at  39  side 2    Res =  0.9628E+01
 Side 1 forced transition at x/c =  1.0000   64
 Side 2  free  transition at x/c =  0.0128   29

  37   rms: 0.2019E+00   max: 0.1336E+01   D at   39  2
       a =-21.500      CL = -1.0091
      Cm =  0.0541     CD =  0.18769   =>   CDf =  0.00182    CDp =  0.18587

 Side 1 forced transition at x/c =  1.0000   64
 Side 2  free  transition at x/c =  0.0123   29

  38   rms: 0.1637E+00   max: -.8486E+00   D at   35  2   RLX: 0.589
       a =-21.500      CL = -1.0792
      Cm =  0.0636     CD =  0.18754   =>   CDf =  0.00161    CDp =  0.18593

 Side 1 forced transition at x/c =  1.0000   63
 Side 2  free  transition at x/c =  0.0127   30

  39   rms: 0.6764E+00   max: -.3353E+01   D at   40  2   RLX: 0.149
       a =-21.500      CL = -1.1345
      Cm =  0.0635     CD =  0.18200   =>   CDf =  0.00190    CDp =  0.18010

 Side 1 forced transition at x/c =  1.0000   63
 Side 2  free  transition at x/c =  0.0128   30

  40   rms: 0.4161E+00   max: 0.2362E+01   D at   41  2   RLX: 0.635
       a =-21.500      CL = -1.0228
      Cm =  0.0715     CD =  0.22728   =>   CDf =  0.00227    CDp =  0.22501

 MRCHDU: Convergence failed at  37  side 2    Res =  0.7735E+01
Note: The following floating-point exceptions are signalling: IEEE_DIVIDE_BY_ZERO IEEE_UNDERFLOW_FLAG IEEE_DENORMAL
 MRCHDU: Convergence failed at  38  side 2    Res =  0.1680E+01
 MRCHDU: Convergence failed at  39  side 2    Res =  0.1994E+01
 MRCHDU: Convergence failed at  40  side 2    Res =  0.9613E+00
 Side 1 forced transition at x/c =  1.0000   64
 Side 2  free  transition at x/c =  0.0128   29

  41   rms: 0.2354E+00   max: 0.9320E+00   D at   40  2   RLX: 0.684
       a =-21.500      CL = -1.1163
      Cm =  0.0714     CD =  0.18236   =>   CDf =  0.00167    CDp =  0.18069

 Side 1 forced transition at x/c =  1.0000   63
 Side 2  free  transition at x/c =  0.0128   30

  42   rms: 0.9618E+00   max: -.4569E+01   D at   40  2   RLX: 0.109
       a =-21.500      CL = -1.1110
      Cm =  0.0546     CD =  0.17946   =>   CDf =  0.00195    CDp =  0.17751

 Side 1 forced transition at x/c =  1.0000   63
 Side 2  free  transition at x/c =  0.0128   30

  43   rms: 0.1335E+00   max: 0.7477E+00   D at   41  2
       a =-21.500      CL = -1.0367
      Cm =  0.0541     CD =  0.19899   =>   CDf =  0.00209    CDp =  0.19690

 MRCHDU: Convergence failed at  40  side 2    Res =  0.1500E+01
 Side 1 forced transition at x/c =  1.0000   63
 Side 2  free  transition at x/c =  0.0126   30

  44   rms: 0.1925E+00   max: 0.1405E+01   D at   40  2
       a =-21.500      CL = -0.9912
      Cm =  0.0626     CD =  0.21937   =>   CDf =  0.00212    CDp =  0.21726

 MRCHDU: Convergence failed at  37  side 2    Res =  0.1084E+01
 MRCHDU: Convergence failed at  39  side 2    Res =  0.1244E+02
 Side 1 forced transition at x/c =  1.0000   64
 Side 2  free  transition at x/c =  0.0124   29

  45   rms: 0.3599E+00   max: -.2099E+01   D at   35  2   RLX: 0.238
       a =-21.500      CL = -1.1495
      Cm =  0.0915     CD =  0.19355   =>   CDf =  0.00176    CDp =  0.19178
 VISCAL:  Convergence failed

 Sequence halted since previous  4 points did not converge
 Last-converged  alpha = -20.500    CL =  -1.07163

.OPERva   c>  
 Polar accumulation disabled

.OPERv   c>  
 XFOIL   c>  